/*---------------------------------------------------------------------------*\
  =========                 |
  \\      /  F ield         | OpenFOAM: The Open Source CFD Toolbox
   \\    /   O peration     | Website:  https://openfoam.org
    \\  /    A nd           | Version:  13
     \\/     M anipulation  |
\*---------------------------------------------------------------------------*/
Build  : 13-cde978a97c93
Exec   : foamRun
Date   : Feb 05 2026
Time   : 20:02:47
Host   : "JOO-DESKTOP"
PID    : 12961
I/O    : uncollated
Case   : /home/joo/OpenFOAM/joo-13/run/portfolio_openfoam/trackA/11_kOmegaSST
nProcs : 1
sigFpe : Enabling floating point exception trapping (FOAM_SIGFPE).
fileModificationChecking : Monitoring run-time modified files using timeStampMaster (fileModificationSkew 10)
allowSystemOperations : Allowing user-supplied system call operations

// * * * * * * * * * * * * * * * * * * * * * * * * * * * * * * * * * * * * * //
Create time

Create mesh for time = 0

Selecting solver incompressibleFluid
Selecting viscosity model constant
Selecting turbulence model type RAS
    Selecting RAS turbulence model kOmegaSST
        Selecting generalised Newtonian model Newtonian
No MRF models present

Selecting patchDistMethod meshWave

SIMPLE: Convergence criteria found
        p: tolerance 0.01
        U: tolerance 0.001
        "(k|epsilon|omega|f|v2)": tolerance 0.001


SIMPLE: Operating solver in steady-state mode with 1 outer corrector
SIMPLE: Operating solver in SIMPLE mode



Starting time loop

streamlines streamlines:
    automatic track length specified through number of sub cycles : 5

streamlines streamlines write:
    Seeded 10 particles
    Sampled 114 locations

Time = 1s

smoothSolver:  Solving for Ux, Initial residual = 1, Final residual = 0.0566285, No Iterations 1
smoothSolver:  Solving for Uy, Initial residual = 0, Final residual = 0, No Iterations 0
GAMG:  Solving for p, Initial residual = 1, Final residual = 0.0684344, No Iterations 17
time step continuity errors : sum local = 1.19746, global = 0.179902, cumulative = 0.179902
smoothSolver:  Solving for omega, Initial residual = 0.144375, Final residual = 0.00810636, No Iterations 3
smoothSolver:  Solving for k, Initial residual = 1, Final residual = 0.0431238, No Iterations 3
ExecutionTime = 0.21899 s  ClockTime = 1 s

Time = 2s

smoothSolver:  Solving for Ux, Initial residual = 0.489745, Final residual = 0.0449652, No Iterations 4
smoothSolver:  Solving for Uy, Initial residual = 0.337962, Final residual = 0.0287864, No Iterations 4
GAMG:  Solving for p, Initial residual = 0.0435465, Final residual = 0.0036465, No Iterations 15
time step continuity errors : sum local = 5.87209, global = 0.127207, cumulative = 0.307109
smoothSolver:  Solving for omega, Initial residual = 0.0568114, Final residual = 0.00139294, No Iterations 2
smoothSolver:  Solving for k, Initial residual = 0.321559, Final residual = 0.0151875, No Iterations 2
ExecutionTime = 0.243389 s  ClockTime = 1 s

Time = 3s

smoothSolver:  Solving for Ux, Initial residual = 0.1481, Final residual = 0.01092, No Iterations 4
smoothSolver:  Solving for Uy, Initial residual = 0.214303, Final residual = 0.0141576, No Iterations 4
GAMG:  Solving for p, Initial residual = 0.144753, Final residual = 0.0115941, No Iterations 6
time step continuity errors : sum local = 4.82955, global = 0.440454, cumulative = 0.747563
smoothSolver:  Solving for omega, Initial residual = 0.0461306, Final residual = 0.00103544, No Iterations 2
smoothSolver:  Solving for k, Initial residual = 0.153221, Final residual = 0.0074111, No Iterations 2
ExecutionTime = 0.260257 s  ClockTime = 1 s

Time = 4s

smoothSolver:  Solving for Ux, Initial residual = 0.0875286, Final residual = 0.00687229, No Iterations 4
smoothSolver:  Solving for Uy, Initial residual = 0.142371, Final residual = 0.00910176, No Iterations 4
GAMG:  Solving for p, Initial residual = 0.12752, Final residual = 0.0103539, No Iterations 7
time step continuity errors : sum local = 2.52219, global = 0.0618396, cumulative = 0.809403
smoothSolver:  Solving for omega, Initial residual = 0.0481174, Final residual = 0.00366418, No Iterations 1
smoothSolver:  Solving for k, Initial residual = 0.104884, Final residual = 0.00623468, No Iterations 2
ExecutionTime = 0.280826 s  ClockTime = 1 s

Time = 5s

smoothSolver:  Solving for Ux, Initial residual = 0.071749, Final residual = 0.0062388, No Iterations 4
smoothSolver:  Solving for Uy, Initial residual = 0.12015, Final residual = 0.0092272, No Iterations 4
GAMG:  Solving for p, Initial residual = 0.124931, Final residual = 0.0112272, No Iterations 4
time step continuity errors : sum local = 1.54286, global = -0.133775, cumulative = 0.675628
smoothSolver:  Solving for omega, Initial residual = 0.0236924, Final residual = 0.00118463, No Iterations 2
smoothSolver:  Solving for k, Initial residual = 0.0905869, Final residual = 0.00565581, No Iterations 2
ExecutionTime = 0.301167 s  ClockTime = 1 s

Time = 6s

smoothSolver:  Solving for Ux, Initial residual = 0.0625917, Final residual = 0.0059207, No Iterations 4
smoothSolver:  Solving for Uy, Initial residual = 0.0981494, Final residual = 0.00874986, No Iterations 4
GAMG:  Solving for p, Initial residual = 0.106056, Final residual = 0.00885916, No Iterations 5
time step continuity errors : sum local = 1.10101, global = 0.126412, cumulative = 0.80204
smoothSolver:  Solving for omega, Initial residual = 0.0142296, Final residual = 0.000695886, No Iterations 2
smoothSolver:  Solving for k, Initial residual = 0.0771864, Final residual = 0.00507551, No Iterations 2
ExecutionTime = 0.320881 s  ClockTime = 1 s

Time = 7s

smoothSolver:  Solving for Ux, Initial residual = 0.0557936, Final residual = 0.00345797, No Iterations 5
smoothSolver:  Solving for Uy, Initial residual = 0.0847652, Final residual = 0.00801004, No Iterations 4
GAMG:  Solving for p, Initial residual = 0.0964948, Final residual = 0.00764686, No Iterations 4
time step continuity errors : sum local = 0.913922, global = -0.107366, cumulative = 0.694673
smoothSolver:  Solving for omega, Initial residual = 0.0126268, Final residual = 0.000675771, No Iterations 2
smoothSolver:  Solving for k, Initial residual = 0.0682558, Final residual = 0.00464278, No Iterations 2
ExecutionTime = 0.340227 s  ClockTime = 1 s

Time = 8s

smoothSolver:  Solving for Ux, Initial residual = 0.0447289, Final residual = 0.00277416, No Iterations 5
smoothSolver:  Solving for Uy, Initial residual = 0.0803092, Final residual = 0.00718627, No Iterations 4
GAMG:  Solving for p, Initial residual = 0.0928027, Final residual = 0.00689929, No Iterations 4
time step continuity errors : sum local = 0.807854, global = -0.1004, cumulative = 0.594273
smoothSolver:  Solving for omega, Initial residual = 0.0375178, Final residual = 0.00131396, No Iterations 2
smoothSolver:  Solving for k, Initial residual = 0.0650789, Final residual = 0.00420983, No Iterations 2
ExecutionTime = 0.35993 s  ClockTime = 1 s

Time = 9s

smoothSolver:  Solving for Ux, Initial residual = 0.0468814, Final residual = 0.00309597, No Iterations 5
smoothSolver:  Solving for Uy, Initial residual = 0.0793436, Final residual = 0.00740133, No Iterations 4
GAMG:  Solving for p, Initial residual = 0.0907978, Final residual = 0.00674995, No Iterations 4
time step continuity errors : sum local = 0.77488, global = -0.105222, cumulative = 0.489052
smoothSolver:  Solving for omega, Initial residual = 0.0109604, Final residual = 0.000544011, No Iterations 2
smoothSolver:  Solving for k, Initial residual = 0.0552062, Final residual = 0.00362551, No Iterations 2
ExecutionTime = 0.378887 s  ClockTime = 1 s

Time = 10s

smoothSolver:  Solving for Ux, Initial residual = 0.0437118, Final residual = 0.00288932, No Iterations 5
smoothSolver:  Solving for Uy, Initial residual = 0.0750851, Final residual = 0.00705203, No Iterations 4
GAMG:  Solving for p, Initial residual = 0.0903375, Final residual = 0.00704125, No Iterations 4
time step continuity errors : sum local = 0.782152, global = -0.118778, cumulative = 0.370273
smoothSolver:  Solving for omega, Initial residual = 0.00976688, Final residual = 0.000500785, No Iterations 2
smoothSolver:  Solving for k, Initial residual = 0.050421, Final residual = 0.00343933, No Iterations 2
ExecutionTime = 0.398332 s  ClockTime = 1 s

Time = 11s

smoothSolver:  Solving for Ux, Initial residual = 0.0403569, Final residual = 0.00267631, No Iterations 5
smoothSolver:  Solving for Uy, Initial residual = 0.0739551, Final residual = 0.00692247, No Iterations 4
GAMG:  Solving for p, Initial residual = 0.0884684, Final residual = 0.00755177, No Iterations 4
time step continuity errors : sum local = 0.812661, global = -0.126385, cumulative = 0.243889
smoothSolver:  Solving for omega, Initial residual = 0.00928489, Final residual = 0.000478186, No Iterations 2
smoothSolver:  Solving for k, Initial residual = 0.0478543, Final residual = 0.00322289, No Iterations 2
ExecutionTime = 0.417541 s  ClockTime = 1 s

Time = 12s

smoothSolver:  Solving for Ux, Initial residual = 0.0373433, Final residual = 0.00247515, No Iterations 5
smoothSolver:  Solving for Uy, Initial residual = 0.0739994, Final residual = 0.00694582, No Iterations 4
GAMG:  Solving for p, Initial residual = 0.0913939, Final residual = 0.00761969, No Iterations 4
time step continuity errors : sum local = 0.777835, global = -0.116509, cumulative = 0.127379
smoothSolver:  Solving for omega, Initial residual = 0.00919059, Final residual = 0.000468289, No Iterations 2
smoothSolver:  Solving for k, Initial residual = 0.046033, Final residual = 0.00297422, No Iterations 2
ExecutionTime = 0.435873 s  ClockTime = 1 s

Time = 13s

smoothSolver:  Solving for Ux, Initial residual = 0.0347986, Final residual = 0.00229648, No Iterations 5
smoothSolver:  Solving for Uy, Initial residual = 0.0738576, Final residual = 0.00709033, No Iterations 4
GAMG:  Solving for p, Initial residual = 0.0922834, Final residual = 0.00712757, No Iterations 4
time step continuity errors : sum local = 0.684529, global = -0.0981414, cumulative = 0.0292379
smoothSolver:  Solving for omega, Initial residual = 0.00901333, Final residual = 0.000462635, No Iterations 2
smoothSolver:  Solving for k, Initial residual = 0.0438706, Final residual = 0.00278827, No Iterations 2
ExecutionTime = 0.4546 s  ClockTime = 1 s

Time = 14s

smoothSolver:  Solving for Ux, Initial residual = 0.032697, Final residual = 0.0021366, No Iterations 5
smoothSolver:  Solving for Uy, Initial residual = 0.0735375, Final residual = 0.00730065, No Iterations 4
GAMG:  Solving for p, Initial residual = 0.0899166, Final residual = 0.00660517, No Iterations 4
time step continuity errors : sum local = 0.602816, global = -0.084605, cumulative = -0.0553671
smoothSolver:  Solving for omega, Initial residual = 0.00878851, Final residual = 0.000448942, No Iterations 2
smoothSolver:  Solving for k, Initial residual = 0.0419531, Final residual = 0.00250532, No Iterations 2
ExecutionTime = 0.474359 s  ClockTime = 1 s

Time = 15s

smoothSolver:  Solving for Ux, Initial residual = 0.0308799, Final residual = 0.00199126, No Iterations 5
smoothSolver:  Solving for Uy, Initial residual = 0.0732972, Final residual = 0.00455368, No Iterations 5
GAMG:  Solving for p, Initial residual = 0.0874296, Final residual = 0.00699499, No Iterations 4
time step continuity errors : sum local = 0.607027, global = -0.0838307, cumulative = -0.139198
smoothSolver:  Solving for omega, Initial residual = 0.00841895, Final residual = 0.000416365, No Iterations 2
smoothSolver:  Solving for k, Initial residual = 0.0398035, Final residual = 0.00217824, No Iterations 2
ExecutionTime = 0.494213 s  ClockTime = 1 s

Time = 16s

smoothSolver:  Solving for Ux, Initial residual = 0.0292434, Final residual = 0.00187413, No Iterations 5
smoothSolver:  Solving for Uy, Initial residual = 0.0724932, Final residual = 0.00462243, No Iterations 5
GAMG:  Solving for p, Initial residual = 0.0867107, Final residual = 0.00722957, No Iterations 4
time step continuity errors : sum local = 0.612883, global = -0.0853564, cumulative = -0.224554
smoothSolver:  Solving for omega, Initial residual = 0.00815554, Final residual = 0.000387572, No Iterations 2
smoothSolver:  Solving for k, Initial residual = 0.0386887, Final residual = 0.00208973, No Iterations 2
ExecutionTime = 0.513471 s  ClockTime = 1 s

Time = 17s

smoothSolver:  Solving for Ux, Initial residual = 0.0277574, Final residual = 0.00176325, No Iterations 5
smoothSolver:  Solving for Uy, Initial residual = 0.0716989, Final residual = 0.00469862, No Iterations 5
GAMG:  Solving for p, Initial residual = 0.0838242, Final residual = 0.00737564, No Iterations 4
time step continuity errors : sum local = 0.602943, global = -0.0797681, cumulative = -0.304322
smoothSolver:  Solving for omega, Initial residual = 0.00777414, Final residual = 0.000360363, No Iterations 2
smoothSolver:  Solving for k, Initial residual = 0.0374215, Final residual = 0.00183355, No Iterations 2
ExecutionTime = 0.533783 s  ClockTime = 1 s

Time = 18s

smoothSolver:  Solving for Ux, Initial residual = 0.0263594, Final residual = 0.00165842, No Iterations 5
smoothSolver:  Solving for Uy, Initial residual = 0.0703653, Final residual = 0.00474382, No Iterations 5
GAMG:  Solving for p, Initial residual = 0.0829102, Final residual = 0.00736806, No Iterations 4
time step continuity errors : sum local = 0.584753, global = -0.0738567, cumulative = -0.378179
smoothSolver:  Solving for omega, Initial residual = 0.00751068, Final residual = 0.000332405, No Iterations 2
smoothSolver:  Solving for k, Initial residual = 0.0360464, Final residual = 0.00156861, No Iterations 2
ExecutionTime = 0.553435 s  ClockTime = 1 s

Time = 19s

smoothSolver:  Solving for Ux, Initial residual = 0.0249118, Final residual = 0.00155562, No Iterations 5
smoothSolver:  Solving for Uy, Initial residual = 0.068559, Final residual = 0.00473262, No Iterations 5
GAMG:  Solving for p, Initial residual = 0.0845731, Final residual = 0.00715191, No Iterations 4
time step continuity errors : sum local = 0.545675, global = -0.0710663, cumulative = -0.449245
smoothSolver:  Solving for omega, Initial residual = 0.00712024, Final residual = 0.000299727, No Iterations 2
smoothSolver:  Solving for k, Initial residual = 0.0342479, Final residual = 0.00149321, No Iterations 2
ExecutionTime = 0.573869 s  ClockTime = 1 s

Time = 20s

smoothSolver:  Solving for Ux, Initial residual = 0.0234409, Final residual = 0.00146276, No Iterations 5
smoothSolver:  Solving for Uy, Initial residual = 0.0664217, Final residual = 0.00468269, No Iterations 5
GAMG:  Solving for p, Initial residual = 0.0843646, Final residual = 0.00716956, No Iterations 4
time step continuity errors : sum local = 0.531407, global = -0.0690949, cumulative = -0.51834
smoothSolver:  Solving for omega, Initial residual = 0.00691262, Final residual = 0.00029046, No Iterations 2
smoothSolver:  Solving for k, Initial residual = 0.0328179, Final residual = 0.00135951, No Iterations 2
ExecutionTime = 0.594449 s  ClockTime = 1 s

Time = 21s

smoothSolver:  Solving for Ux, Initial residual = 0.0220653, Final residual = 0.00137451, No Iterations 5
smoothSolver:  Solving for Uy, Initial residual = 0.0637419, Final residual = 0.00458251, No Iterations 5
GAMG:  Solving for p, Initial residual = 0.0836575, Final residual = 0.00722751, No Iterations 4
time step continuity errors : sum local = 0.52393, global = -0.0695151, cumulative = -0.587855
smoothSolver:  Solving for omega, Initial residual = 0.00669132, Final residual = 0.000272108, No Iterations 2
smoothSolver:  Solving for k, Initial residual = 0.0314514, Final residual = 0.00129209, No Iterations 2
ExecutionTime = 0.614297 s  ClockTime = 1 s

Time = 22s

smoothSolver:  Solving for Ux, Initial residual = 0.0207937, Final residual = 0.00128742, No Iterations 5
smoothSolver:  Solving for Uy, Initial residual = 0.0606944, Final residual = 0.00443819, No Iterations 5
GAMG:  Solving for p, Initial residual = 0.0826738, Final residual = 0.00698189, No Iterations 4
time step continuity errors : sum local = 0.493768, global = -0.0612869, cumulative = -0.649142
smoothSolver:  Solving for omega, Initial residual = 0.00654752, Final residual = 0.000268984, No Iterations 2
smoothSolver:  Solving for k, Initial residual = 0.0303794, Final residual = 0.00123805, No Iterations 2
ExecutionTime = 0.634296 s  ClockTime = 1 s

Time = 23s

smoothSolver:  Solving for Ux, Initial residual = 0.0194709, Final residual = 0.00120296, No Iterations 5
smoothSolver:  Solving for Uy, Initial residual = 0.0575242, Final residual = 0.00425506, No Iterations 5
GAMG:  Solving for p, Initial residual = 0.0812055, Final residual = 0.00654421, No Iterations 4
time step continuity errors : sum local = 0.452253, global = -0.0465657, cumulative = -0.695708
smoothSolver:  Solving for omega, Initial residual = 0.00632889, Final residual = 0.000254461, No Iterations 2
smoothSolver:  Solving for k, Initial residual = 0.0291259, Final residual = 0.00117015, No Iterations 2
ExecutionTime = 0.653741 s  ClockTime = 1 s

Time = 24s

smoothSolver:  Solving for Ux, Initial residual = 0.0181219, Final residual = 0.00112228, No Iterations 5
smoothSolver:  Solving for Uy, Initial residual = 0.0541575, Final residual = 0.00403733, No Iterations 5
GAMG:  Solving for p, Initial residual = 0.079334, Final residual = 0.00621605, No Iterations 4
time step continuity errors : sum local = 0.419943, global = -0.0331517, cumulative = -0.72886
smoothSolver:  Solving for omega, Initial residual = 0.00615771, Final residual = 0.000241754, No Iterations 2
smoothSolver:  Solving for k, Initial residual = 0.0281087, Final residual = 0.00114369, No Iterations 2
ExecutionTime = 0.673797 s  ClockTime = 1 s

Time = 25s

smoothSolver:  Solving for Ux, Initial residual = 0.0168145, Final residual = 0.00104641, No Iterations 5
smoothSolver:  Solving for Uy, Initial residual = 0.0506574, Final residual = 0.0037925, No Iterations 5
GAMG:  Solving for p, Initial residual = 0.0771836, Final residual = 0.00606934, No Iterations 4
time step continuity errors : sum local = 0.402944, global = -0.0277752, cumulative = -0.756635
smoothSolver:  Solving for omega, Initial residual = 0.00604394, Final residual = 0.000240514, No Iterations 2
smoothSolver:  Solving for k, Initial residual = 0.0270493, Final residual = 0.00114211, No Iterations 2
ExecutionTime = 0.693336 s  ClockTime = 1 s

Time = 26s

smoothSolver:  Solving for Ux, Initial residual = 0.0156222, Final residual = 0.000975346, No Iterations 5
smoothSolver:  Solving for Uy, Initial residual = 0.0470719, Final residual = 0.00352787, No Iterations 5
GAMG:  Solving for p, Initial residual = 0.074573, Final residual = 0.00598103, No Iterations 4
time step continuity errors : sum local = 0.390454, global = -0.0304613, cumulative = -0.787096
smoothSolver:  Solving for omega, Initial residual = 0.00577398, Final residual = 0.000225452, No Iterations 2
smoothSolver:  Solving for k, Initial residual = 0.0259106, Final residual = 0.00108671, No Iterations 2
ExecutionTime = 0.713284 s  ClockTime = 1 s

Time = 27s

smoothSolver:  Solving for Ux, Initial residual = 0.0145271, Final residual = 0.000910336, No Iterations 5
smoothSolver:  Solving for Uy, Initial residual = 0.0435294, Final residual = 0.00326267, No Iterations 5
GAMG:  Solving for p, Initial residual = 0.0715412, Final residual = 0.00575611, No Iterations 4
time step continuity errors : sum local = 0.37028, global = -0.0359027, cumulative = -0.822999
smoothSolver:  Solving for omega, Initial residual = 0.00564259, Final residual = 0.000221653, No Iterations 2
smoothSolver:  Solving for k, Initial residual = 0.0250636, Final residual = 0.00104987, No Iterations 2
ExecutionTime = 0.733063 s  ClockTime = 1 s

Time = 28s

smoothSolver:  Solving for Ux, Initial residual = 0.0135306, Final residual = 0.000853236, No Iterations 5
smoothSolver:  Solving for Uy, Initial residual = 0.0402769, Final residual = 0.00301283, No Iterations 5
GAMG:  Solving for p, Initial residual = 0.0679068, Final residual = 0.00538846, No Iterations 4
time step continuity errors : sum local = 0.345155, global = -0.0413731, cumulative = -0.864372
smoothSolver:  Solving for omega, Initial residual = 0.00542032, Final residual = 0.000210312, No Iterations 2
smoothSolver:  Solving for k, Initial residual = 0.0237596, Final residual = 0.00103946, No Iterations 2
ExecutionTime = 0.753281 s  ClockTime = 1 s

Time = 29s

smoothSolver:  Solving for Ux, Initial residual = 0.0126543, Final residual = 0.000803822, No Iterations 5
smoothSolver:  Solving for Uy, Initial residual = 0.0373522, Final residual = 0.00278977, No Iterations 5
GAMG:  Solving for p, Initial residual = 0.0650943, Final residual = 0.00493602, No Iterations 4
time step continuity errors : sum local = 0.320097, global = -0.0419239, cumulative = -0.906296
smoothSolver:  Solving for omega, Initial residual = 0.00530588, Final residual = 0.000205378, No Iterations 2
smoothSolver:  Solving for k, Initial residual = 0.0230547, Final residual = 0.000997909, No Iterations 2
ExecutionTime = 0.773779 s  ClockTime = 1 s

Time = 30s

smoothSolver:  Solving for Ux, Initial residual = 0.0119382, Final residual = 0.000762242, No Iterations 5
smoothSolver:  Solving for Uy, Initial residual = 0.0349533, Final residual = 0.00261109, No Iterations 5
GAMG:  Solving for p, Initial residual = 0.0626706, Final residual = 0.00463265, No Iterations 4
time step continuity errors : sum local = 0.303812, global = -0.0376822, cumulative = -0.943978
smoothSolver:  Solving for omega, Initial residual = 0.00518389, Final residual = 0.000197547, No Iterations 2
smoothSolver:  Solving for k, Initial residual = 0.0221173, Final residual = 0.000966427, No Iterations 2
ExecutionTime = 0.793355 s  ClockTime = 1 s

Time = 31s

smoothSolver:  Solving for Ux, Initial residual = 0.0113537, Final residual = 0.000728928, No Iterations 5
smoothSolver:  Solving for Uy, Initial residual = 0.0330936, Final residual = 0.00247792, No Iterations 5
GAMG:  Solving for p, Initial residual = 0.0611372, Final residual = 0.0044647, No Iterations 4
time step continuity errors : sum local = 0.296147, global = -0.0319596, cumulative = -0.975937
smoothSolver:  Solving for omega, Initial residual = 0.00499295, Final residual = 0.000189141, No Iterations 2
smoothSolver:  Solving for k, Initial residual = 0.0212043, Final residual = 0.000914261, No Iterations 2
ExecutionTime = 0.81287 s  ClockTime = 1 s

Time = 32s

smoothSolver:  Solving for Ux, Initial residual = 0.0108674, Final residual = 0.000703447, No Iterations 5
smoothSolver:  Solving for Uy, Initial residual = 0.0316994, Final residual = 0.00237777, No Iterations 5
GAMG:  Solving for p, Initial residual = 0.0595581, Final residual = 0.00411325, No Iterations 4
time step continuity errors : sum local = 0.277106, global = -0.0270797, cumulative = -1.00302
smoothSolver:  Solving for omega, Initial residual = 0.00483606, Final residual = 0.000182401, No Iterations 2
smoothSolver:  Solving for k, Initial residual = 0.0205082, Final residual = 0.000867369, No Iterations 2
ExecutionTime = 0.832229 s  ClockTime = 1 s

Time = 33s

smoothSolver:  Solving for Ux, Initial residual = 0.0104686, Final residual = 0.000687343, No Iterations 5
smoothSolver:  Solving for Uy, Initial residual = 0.0307321, Final residual = 0.00230352, No Iterations 5
GAMG:  Solving for p, Initial residual = 0.0589512, Final residual = 0.00398791, No Iterations 4
time step continuity errors : sum local = 0.271384, global = -0.0255983, cumulative = -1.02862
smoothSolver:  Solving for omega, Initial residual = 0.00473862, Final residual = 0.000176147, No Iterations 2
smoothSolver:  Solving for k, Initial residual = 0.0196688, Final residual = 0.000821425, No Iterations 2
ExecutionTime = 0.851458 s  ClockTime = 1 s

Time = 34s

smoothSolver:  Solving for Ux, Initial residual = 0.0101527, Final residual = 0.000680058, No Iterations 5
smoothSolver:  Solving for Uy, Initial residual = 0.0301366, Final residual = 0.00225046, No Iterations 5
GAMG:  Solving for p, Initial residual = 0.0582401, Final residual = 0.00410386, No Iterations 4
time step continuity errors : sum local = 0.28201, global = -0.0304815, cumulative = -1.0591
smoothSolver:  Solving for omega, Initial residual = 0.00464585, Final residual = 0.00017184, No Iterations 2
smoothSolver:  Solving for k, Initial residual = 0.0187554, Final residual = 0.000779658, No Iterations 2
ExecutionTime = 0.870804 s  ClockTime = 1 s

Time = 35s

smoothSolver:  Solving for Ux, Initial residual = 0.00991979, Final residual = 0.000677788, No Iterations 5
smoothSolver:  Solving for Uy, Initial residual = 0.0298306, Final residual = 0.00221793, No Iterations 5
GAMG:  Solving for p, Initial residual = 0.0580504, Final residual = 0.00427179, No Iterations 4
time step continuity errors : sum local = 0.29588, global = -0.0338576, cumulative = -1.09295
smoothSolver:  Solving for omega, Initial residual = 0.0045042, Final residual = 0.00016332, No Iterations 2
smoothSolver:  Solving for k, Initial residual = 0.0182674, Final residual = 0.000763196, No Iterations 2
ExecutionTime = 0.890172 s  ClockTime = 1 s

Time = 36s

smoothSolver:  Solving for Ux, Initial residual = 0.0097506, Final residual = 0.000677148, No Iterations 5
smoothSolver:  Solving for Uy, Initial residual = 0.0297026, Final residual = 0.00220141, No Iterations 5
GAMG:  Solving for p, Initial residual = 0.0580831, Final residual = 0.00427642, No Iterations 4
time step continuity errors : sum local = 0.299148, global = -0.0314413, cumulative = -1.1244
smoothSolver:  Solving for omega, Initial residual = 0.00448838, Final residual = 0.000163199, No Iterations 2
smoothSolver:  Solving for k, Initial residual = 0.0175513, Final residual = 0.000742637, No Iterations 2
ExecutionTime = 0.909999 s  ClockTime = 1 s

Time = 37s

smoothSolver:  Solving for Ux, Initial residual = 0.00960353, Final residual = 0.000674498, No Iterations 5
smoothSolver:  Solving for Uy, Initial residual = 0.0295805, Final residual = 0.00219001, No Iterations 5
GAMG:  Solving for p, Initial residual = 0.0580602, Final residual = 0.00446346, No Iterations 4
time step continuity errors : sum local = 0.31615, global = -0.0384302, cumulative = -1.16283
smoothSolver:  Solving for omega, Initial residual = 0.00431214, Final residual = 0.000157679, No Iterations 2
smoothSolver:  Solving for k, Initial residual = 0.0169156, Final residual = 0.000723195, No Iterations 2
ExecutionTime = 0.929635 s  ClockTime = 1 s

Time = 38s

smoothSolver:  Solving for Ux, Initial residual = 0.00947082, Final residual = 0.000670841, No Iterations 5
smoothSolver:  Solving for Uy, Initial residual = 0.0293977, Final residual = 0.00217675, No Iterations 5
GAMG:  Solving for p, Initial residual = 0.0587215, Final residual = 0.00472145, No Iterations 4
time step continuity errors : sum local = 0.338114, global = -0.0459138, cumulative = -1.20874
smoothSolver:  Solving for omega, Initial residual = 0.00430324, Final residual = 0.000157332, No Iterations 2
smoothSolver:  Solving for k, Initial residual = 0.0166352, Final residual = 0.00070845, No Iterations 2
ExecutionTime = 0.949026 s  ClockTime = 1 s

Time = 39s

smoothSolver:  Solving for Ux, Initial residual = 0.00933295, Final residual = 0.000665352, No Iterations 5
smoothSolver:  Solving for Uy, Initial residual = 0.0291981, Final residual = 0.00216253, No Iterations 5
GAMG:  Solving for p, Initial residual = 0.0588631, Final residual = 0.00506717, No Iterations 4
time step continuity errors : sum local = 0.367502, global = -0.0554506, cumulative = -1.26419
smoothSolver:  Solving for omega, Initial residual = 0.00421825, Final residual = 0.000151235, No Iterations 2
smoothSolver:  Solving for k, Initial residual = 0.0160603, Final residual = 0.000685241, No Iterations 2
ExecutionTime = 0.969156 s  ClockTime = 1 s

Time = 40s

smoothSolver:  Solving for Ux, Initial residual = 0.00919561, Final residual = 0.000657679, No Iterations 5
smoothSolver:  Solving for Uy, Initial residual = 0.0289267, Final residual = 0.00214613, No Iterations 5
GAMG:  Solving for p, Initial residual = 0.0589578, Final residual = 0.00538192, No Iterations 4
time step continuity errors : sum local = 0.39642, global = -0.0621781, cumulative = -1.32637
smoothSolver:  Solving for omega, Initial residual = 0.00418849, Final residual = 0.000151393, No Iterations 2
smoothSolver:  Solving for k, Initial residual = 0.0158242, Final residual = 0.000700476, No Iterations 2
ExecutionTime = 0.989268 s  ClockTime = 1 s

Time = 41s

smoothSolver:  Solving for Ux, Initial residual = 0.00905208, Final residual = 0.000647027, No Iterations 5
smoothSolver:  Solving for Uy, Initial residual = 0.0286009, Final residual = 0.0021285, No Iterations 5
GAMG:  Solving for p, Initial residual = 0.0584932, Final residual = 0.0054151, No Iterations 4
time step continuity errors : sum local = 0.407885, global = -0.0640671, cumulative = -1.39044
smoothSolver:  Solving for omega, Initial residual = 0.00408895, Final residual = 0.000144819, No Iterations 2
smoothSolver:  Solving for k, Initial residual = 0.0156052, Final residual = 0.000687148, No Iterations 2
ExecutionTime = 1.00884 s  ClockTime = 1 s

Time = 42s

smoothSolver:  Solving for Ux, Initial residual = 0.00889068, Final residual = 0.000634721, No Iterations 5
smoothSolver:  Solving for Uy, Initial residual = 0.0281946, Final residual = 0.00210654, No Iterations 5
GAMG:  Solving for p, Initial residual = 0.0579772, Final residual = 0.005435, No Iterations 4
time step continuity errors : sum local = 0.416903, global = -0.0638946, cumulative = -1.45433
smoothSolver:  Solving for omega, Initial residual = 0.00406318, Final residual = 0.000143732, No Iterations 2
smoothSolver:  Solving for k, Initial residual = 0.0151156, Final residual = 0.000684663, No Iterations 2
ExecutionTime = 1.02865 s  ClockTime = 1 s

Time = 43s

smoothSolver:  Solving for Ux, Initial residual = 0.00871524, Final residual = 0.000621616, No Iterations 5
smoothSolver:  Solving for Uy, Initial residual = 0.0276113, Final residual = 0.0020771, No Iterations 5
GAMG:  Solving for p, Initial residual = 0.0569039, Final residual = 0.00539837, No Iterations 4
time step continuity errors : sum local = 0.42241, global = -0.0624747, cumulative = -1.51681
smoothSolver:  Solving for omega, Initial residual = 0.00397408, Final residual = 0.000136908, No Iterations 2
smoothSolver:  Solving for k, Initial residual = 0.0147572, Final residual = 0.000668528, No Iterations 2
ExecutionTime = 1.04821 s  ClockTime = 1 s

Time = 44s

smoothSolver:  Solving for Ux, Initial residual = 0.00856025, Final residual = 0.000609019, No Iterations 5
smoothSolver:  Solving for Uy, Initial residual = 0.0270048, Final residual = 0.00204585, No Iterations 5
GAMG:  Solving for p, Initial residual = 0.0562007, Final residual = 0.00531083, No Iterations 4
time step continuity errors : sum local = 0.423335, global = -0.0601989, cumulative = -1.577
smoothSolver:  Solving for omega, Initial residual = 0.00394574, Final residual = 0.000133545, No Iterations 2
smoothSolver:  Solving for k, Initial residual = 0.0145391, Final residual = 0.000670697, No Iterations 2
ExecutionTime = 1.06769 s  ClockTime = 1 s

Time = 45s

smoothSolver:  Solving for Ux, Initial residual = 0.00841181, Final residual = 0.000598431, No Iterations 5
smoothSolver:  Solving for Uy, Initial residual = 0.026389, Final residual = 0.00201091, No Iterations 5
GAMG:  Solving for p, Initial residual = 0.0551528, Final residual = 0.00515246, No Iterations 4
time step continuity errors : sum local = 0.419176, global = -0.057195, cumulative = -1.6342
smoothSolver:  Solving for omega, Initial residual = 0.00388556, Final residual = 0.000127783, No Iterations 2
smoothSolver:  Solving for k, Initial residual = 0.0141386, Final residual = 0.000673125, No Iterations 2
ExecutionTime = 1.08742 s  ClockTime = 1 s

Time = 46s

smoothSolver:  Solving for Ux, Initial residual = 0.00828575, Final residual = 0.000590388, No Iterations 5
smoothSolver:  Solving for Uy, Initial residual = 0.0257805, Final residual = 0.00197071, No Iterations 5
GAMG:  Solving for p, Initial residual = 0.0541008, Final residual = 0.00493389, No Iterations 4
time step continuity errors : sum local = 0.409717, global = -0.0539698, cumulative = -1.68817
smoothSolver:  Solving for omega, Initial residual = 0.00384628, Final residual = 0.00012604, No Iterations 2
smoothSolver:  Solving for k, Initial residual = 0.0139533, Final residual = 0.000667937, No Iterations 2
ExecutionTime = 1.10712 s  ClockTime = 1 s

Time = 47s

smoothSolver:  Solving for Ux, Initial residual = 0.00817699, Final residual = 0.00058582, No Iterations 5
smoothSolver:  Solving for Uy, Initial residual = 0.025156, Final residual = 0.00192241, No Iterations 5
GAMG:  Solving for p, Initial residual = 0.0527211, Final residual = 0.00465968, No Iterations 4
time step continuity errors : sum local = 0.395507, global = -0.0504369, cumulative = -1.73861
smoothSolver:  Solving for omega, Initial residual = 0.00381535, Final residual = 0.000125087, No Iterations 2
smoothSolver:  Solving for k, Initial residual = 0.0135743, Final residual = 0.000665404, No Iterations 2
ExecutionTime = 1.12651 s  ClockTime = 1 s

Time = 48s

smoothSolver:  Solving for Ux, Initial residual = 0.00810909, Final residual = 0.000585865, No Iterations 5
smoothSolver:  Solving for Uy, Initial residual = 0.0245394, Final residual = 0.00186838, No Iterations 5
GAMG:  Solving for p, Initial residual = 0.0514202, Final residual = 0.00442706, No Iterations 4
time step continuity errors : sum local = 0.383357, global = -0.048314, cumulative = -1.78692
smoothSolver:  Solving for omega, Initial residual = 0.003774, Final residual = 0.00012151, No Iterations 2
smoothSolver:  Solving for k, Initial residual = 0.0132481, Final residual = 0.000656537, No Iterations 2
ExecutionTime = 1.14579 s  ClockTime = 2 s

Time = 49s

smoothSolver:  Solving for Ux, Initial residual = 0.00807887, Final residual = 0.000589942, No Iterations 5
smoothSolver:  Solving for Uy, Initial residual = 0.02394, Final residual = 0.00181384, No Iterations 5
GAMG:  Solving for p, Initial residual = 0.0504792, Final residual = 0.0041899, No Iterations 4
time step continuity errors : sum local = 0.369444, global = -0.0459286, cumulative = -1.83285
smoothSolver:  Solving for omega, Initial residual = 0.00374711, Final residual = 0.000120618, No Iterations 2
smoothSolver:  Solving for k, Initial residual = 0.0128701, Final residual = 0.000648011, No Iterations 2
ExecutionTime = 1.16574 s  ClockTime = 2 s

Time = 50s

smoothSolver:  Solving for Ux, Initial residual = 0.00807566, Final residual = 0.000597117, No Iterations 5
smoothSolver:  Solving for Uy, Initial residual = 0.0233535, Final residual = 0.00176138, No Iterations 5
GAMG:  Solving for p, Initial residual = 0.0497094, Final residual = 0.00394832, No Iterations 4
time step continuity errors : sum local = 0.355625, global = -0.0433868, cumulative = -1.87624
smoothSolver:  Solving for omega, Initial residual = 0.003722, Final residual = 0.000119331, No Iterations 2
smoothSolver:  Solving for k, Initial residual = 0.0126648, Final residual = 0.000643472, No Iterations 2
ExecutionTime = 1.18512 s  ClockTime = 2 s

Time = 51s

smoothSolver:  Solving for Ux, Initial residual = 0.0080895, Final residual = 0.00060258, No Iterations 5
smoothSolver:  Solving for Uy, Initial residual = 0.0228369, Final residual = 0.00171295, No Iterations 5
GAMG:  Solving for p, Initial residual = 0.0490295, Final residual = 0.00372101, No Iterations 4
time step continuity errors : sum local = 0.341919, global = -0.0407718, cumulative = -1.91701
smoothSolver:  Solving for omega, Initial residual = 0.00371332, Final residual = 0.000119476, No Iterations 2
smoothSolver:  Solving for k, Initial residual = 0.0123179, Final residual = 0.000635512, No Iterations 2
ExecutionTime = 1.20453 s  ClockTime = 2 s

Time = 52s

smoothSolver:  Solving for Ux, Initial residual = 0.00811403, Final residual = 0.000605549, No Iterations 5
smoothSolver:  Solving for Uy, Initial residual = 0.0222997, Final residual = 0.00167016, No Iterations 5
GAMG:  Solving for p, Initial residual = 0.0482685, Final residual = 0.00354091, No Iterations 4
time step continuity errors : sum local = 0.330675, global = -0.0385799, cumulative = -1.95559
smoothSolver:  Solving for omega, Initial residual = 0.00368393, Final residual = 0.000118424, No Iterations 2
smoothSolver:  Solving for k, Initial residual = 0.011945, Final residual = 0.000625139, No Iterations 2
ExecutionTime = 1.22503 s  ClockTime = 2 s

Time = 53s

smoothSolver:  Solving for Ux, Initial residual = 0.00813192, Final residual = 0.000605528, No Iterations 5
smoothSolver:  Solving for Uy, Initial residual = 0.0218618, Final residual = 0.00164011, No Iterations 5
GAMG:  Solving for p, Initial residual = 0.0477786, Final residual = 0.00339044, No Iterations 4
time step continuity errors : sum local = 0.321441, global = -0.0366612, cumulative = -1.99225
smoothSolver:  Solving for omega, Initial residual = 0.0036543, Final residual = 0.000119199, No Iterations 2
smoothSolver:  Solving for k, Initial residual = 0.0117876, Final residual = 0.000605674, No Iterations 2
ExecutionTime = 1.2444 s  ClockTime = 2 s

Time = 54s

smoothSolver:  Solving for Ux, Initial residual = 0.00815574, Final residual = 0.000603996, No Iterations 5
smoothSolver:  Solving for Uy, Initial residual = 0.0215227, Final residual = 0.00161922, No Iterations 5
GAMG:  Solving for p, Initial residual = 0.0477808, Final residual = 0.00328372, No Iterations 4
time step continuity errors : sum local = 0.315529, global = -0.0352461, cumulative = -2.02749
smoothSolver:  Solving for omega, Initial residual = 0.00367499, Final residual = 0.000120749, No Iterations 2
smoothSolver:  Solving for k, Initial residual = 0.0114737, Final residual = 0.000582973, No Iterations 2
ExecutionTime = 1.2643 s  ClockTime = 2 s

Time = 55s

smoothSolver:  Solving for Ux, Initial residual = 0.00815709, Final residual = 0.000601427, No Iterations 5
smoothSolver:  Solving for Uy, Initial residual = 0.0212439, Final residual = 0.00160498, No Iterations 5
GAMG:  Solving for p, Initial residual = 0.047215, Final residual = 0.00320071, No Iterations 4
time step continuity errors : sum local = 0.311617, global = -0.0340945, cumulative = -2.06159
smoothSolver:  Solving for omega, Initial residual = 0.0036309, Final residual = 0.000118376, No Iterations 2
smoothSolver:  Solving for k, Initial residual = 0.0113261, Final residual = 0.000578724, No Iterations 2
ExecutionTime = 1.28458 s  ClockTime = 2 s

Time = 56s

smoothSolver:  Solving for Ux, Initial residual = 0.00815615, Final residual = 0.000598389, No Iterations 5
smoothSolver:  Solving for Uy, Initial residual = 0.0210252, Final residual = 0.0015937, No Iterations 5
GAMG:  Solving for p, Initial residual = 0.0469349, Final residual = 0.00319027, No Iterations 4
time step continuity errors : sum local = 0.31357, global = -0.034188, cumulative = -2.09578
smoothSolver:  Solving for omega, Initial residual = 0.00367181, Final residual = 0.000124119, No Iterations 2
smoothSolver:  Solving for k, Initial residual = 0.0110583, Final residual = 0.000560734, No Iterations 2
ExecutionTime = 1.30451 s  ClockTime = 2 s

Time = 57s

smoothSolver:  Solving for Ux, Initial residual = 0.00814295, Final residual = 0.000595957, No Iterations 5
smoothSolver:  Solving for Uy, Initial residual = 0.020864, Final residual = 0.00158319, No Iterations 5
GAMG:  Solving for p, Initial residual = 0.0465898, Final residual = 0.00314369, No Iterations 4
time step continuity errors : sum local = 0.313628, global = -0.0342594, cumulative = -2.13004
smoothSolver:  Solving for omega, Initial residual = 0.00364395, Final residual = 0.000122426, No Iterations 2
smoothSolver:  Solving for k, Initial residual = 0.0109324, Final residual = 0.000562287, No Iterations 2
ExecutionTime = 1.32418 s  ClockTime = 2 s

Time = 58s

smoothSolver:  Solving for Ux, Initial residual = 0.00812677, Final residual = 0.000593204, No Iterations 5
smoothSolver:  Solving for Uy, Initial residual = 0.0207536, Final residual = 0.0015739, No Iterations 5
GAMG:  Solving for p, Initial residual = 0.0462099, Final residual = 0.00310167, No Iterations 4
time step continuity errors : sum local = 0.313346, global = -0.0347145, cumulative = -2.16475
smoothSolver:  Solving for omega, Initial residual = 0.00367392, Final residual = 0.000125765, No Iterations 2
smoothSolver:  Solving for k, Initial residual = 0.0109591, Final residual = 0.000563717, No Iterations 2
ExecutionTime = 1.34387 s  ClockTime = 2 s

Time = 59s

smoothSolver:  Solving for Ux, Initial residual = 0.00812209, Final residual = 0.000591247, No Iterations 5
smoothSolver:  Solving for Uy, Initial residual = 0.0206628, Final residual = 0.00156586, No Iterations 5
GAMG:  Solving for p, Initial residual = 0.0459887, Final residual = 0.00313507, No Iterations 4
time step continuity errors : sum local = 0.320252, global = -0.0357991, cumulative = -2.20055
smoothSolver:  Solving for omega, Initial residual = 0.00367419, Final residual = 0.000124729, No Iterations 2
smoothSolver:  Solving for k, Initial residual = 0.0107891, Final residual = 0.000567315, No Iterations 2
ExecutionTime = 1.36353 s  ClockTime = 2 s

Time = 60s

smoothSolver:  Solving for Ux, Initial residual = 0.00811488, Final residual = 0.000590433, No Iterations 5
smoothSolver:  Solving for Uy, Initial residual = 0.0205476, Final residual = 0.00155909, No Iterations 5
GAMG:  Solving for p, Initial residual = 0.0454503, Final residual = 0.00319591, No Iterations 4
time step continuity errors : sum local = 0.330319, global = -0.0368453, cumulative = -2.23739
smoothSolver:  Solving for omega, Initial residual = 0.00366411, Final residual = 0.000125512, No Iterations 2
smoothSolver:  Solving for k, Initial residual = 0.0106716, Final residual = 0.00057482, No Iterations 2
ExecutionTime = 1.38274 s  ClockTime = 2 s

Time = 61s

smoothSolver:  Solving for Ux, Initial residual = 0.00810259, Final residual = 0.000589583, No Iterations 5
smoothSolver:  Solving for Uy, Initial residual = 0.0204677, Final residual = 0.00155488, No Iterations 5
GAMG:  Solving for p, Initial residual = 0.0450577, Final residual = 0.003259, No Iterations 4
time step continuity errors : sum local = 0.341467, global = -0.0374738, cumulative = -2.27487
smoothSolver:  Solving for omega, Initial residual = 0.00365327, Final residual = 0.000128262, No Iterations 2
smoothSolver:  Solving for k, Initial residual = 0.0105335, Final residual = 0.000576507, No Iterations 2
ExecutionTime = 1.40277 s  ClockTime = 2 s

Time = 62s

smoothSolver:  Solving for Ux, Initial residual = 0.00809393, Final residual = 0.000588712, No Iterations 5
smoothSolver:  Solving for Uy, Initial residual = 0.0204047, Final residual = 0.0015521, No Iterations 5
GAMG:  Solving for p, Initial residual = 0.0443564, Final residual = 0.00330714, No Iterations 4
time step continuity errors : sum local = 0.351351, global = -0.0378457, cumulative = -2.31271
smoothSolver:  Solving for omega, Initial residual = 0.003657, Final residual = 0.000129248, No Iterations 2
smoothSolver:  Solving for k, Initial residual = 0.0105334, Final residual = 0.000588625, No Iterations 2
ExecutionTime = 1.42274 s  ClockTime = 2 s

Time = 63s

smoothSolver:  Solving for Ux, Initial residual = 0.00808459, Final residual = 0.000587717, No Iterations 5
smoothSolver:  Solving for Uy, Initial residual = 0.0203495, Final residual = 0.00155038, No Iterations 5
GAMG:  Solving for p, Initial residual = 0.0437955, Final residual = 0.00335724, No Iterations 4
time step continuity errors : sum local = 0.361443, global = -0.0380343, cumulative = -2.35075
smoothSolver:  Solving for omega, Initial residual = 0.00365729, Final residual = 0.000127954, No Iterations 2
smoothSolver:  Solving for k, Initial residual = 0.0104553, Final residual = 0.000587187, No Iterations 2
ExecutionTime = 1.44208 s  ClockTime = 2 s

Time = 64s

smoothSolver:  Solving for Ux, Initial residual = 0.00807524, Final residual = 0.000586735, No Iterations 5
smoothSolver:  Solving for Uy, Initial residual = 0.0202829, Final residual = 0.00154973, No Iterations 5
GAMG:  Solving for p, Initial residual = 0.0429659, Final residual = 0.0033918, No Iterations 4
time step continuity errors : sum local = 0.369681, global = -0.0384028, cumulative = -2.38915
smoothSolver:  Solving for omega, Initial residual = 0.00365179, Final residual = 0.000126992, No Iterations 2
smoothSolver:  Solving for k, Initial residual = 0.0102798, Final residual = 0.000590809, No Iterations 2
ExecutionTime = 1.46274 s  ClockTime = 2 s

Time = 65s

smoothSolver:  Solving for Ux, Initial residual = 0.00806714, Final residual = 0.000585782, No Iterations 5
smoothSolver:  Solving for Uy, Initial residual = 0.0202644, Final residual = 0.00155197, No Iterations 5
GAMG:  Solving for p, Initial residual = 0.042247, Final residual = 0.00343815, No Iterations 4
time step continuity errors : sum local = 0.378763, global = -0.0390359, cumulative = -2.42819
smoothSolver:  Solving for omega, Initial residual = 0.00361701, Final residual = 0.000128701, No Iterations 2
smoothSolver:  Solving for k, Initial residual = 0.0102184, Final residual = 0.000590168, No Iterations 2
ExecutionTime = 1.48231 s  ClockTime = 2 s

Time = 66s

smoothSolver:  Solving for Ux, Initial residual = 0.0080618, Final residual = 0.000584979, No Iterations 5
smoothSolver:  Solving for Uy, Initial residual = 0.020261, Final residual = 0.00155515, No Iterations 5
GAMG:  Solving for p, Initial residual = 0.0419254, Final residual = 0.00346726, No Iterations 4
time step continuity errors : sum local = 0.386014, global = -0.0398865, cumulative = -2.46807
smoothSolver:  Solving for omega, Initial residual = 0.00364403, Final residual = 0.000127109, No Iterations 2
smoothSolver:  Solving for k, Initial residual = 0.0102109, Final residual = 0.000596304, No Iterations 2
ExecutionTime = 1.50211 s  ClockTime = 2 s

Time = 67s

smoothSolver:  Solving for Ux, Initial residual = 0.00805529, Final residual = 0.000583918, No Iterations 5
smoothSolver:  Solving for Uy, Initial residual = 0.0202848, Final residual = 0.00156068, No Iterations 5
GAMG:  Solving for p, Initial residual = 0.041449, Final residual = 0.00350765, No Iterations 4
time step continuity errors : sum local = 0.394264, global = -0.0412111, cumulative = -2.50928
smoothSolver:  Solving for omega, Initial residual = 0.0035989, Final residual = 0.000124264, No Iterations 2
smoothSolver:  Solving for k, Initial residual = 0.0100614, Final residual = 0.000598818, No Iterations 2
ExecutionTime = 1.52227 s  ClockTime = 2 s

Time = 68s

smoothSolver:  Solving for Ux, Initial residual = 0.00805269, Final residual = 0.000583042, No Iterations 5
smoothSolver:  Solving for Uy, Initial residual = 0.0203134, Final residual = 0.00156688, No Iterations 5
GAMG:  Solving for p, Initial residual = 0.0410306, Final residual = 0.00356068, No Iterations 4
time step continuity errors : sum local = 0.403742, global = -0.0428314, cumulative = -2.55212
smoothSolver:  Solving for omega, Initial residual = 0.00363063, Final residual = 0.000127931, No Iterations 2
smoothSolver:  Solving for k, Initial residual = 0.00995587, Final residual = 0.000600137, No Iterations 2
ExecutionTime = 1.5414 s  ClockTime = 2 s

Time = 69s

smoothSolver:  Solving for Ux, Initial residual = 0.00804145, Final residual = 0.000581817, No Iterations 5
smoothSolver:  Solving for Uy, Initial residual = 0.0203531, Final residual = 0.00157457, No Iterations 5
GAMG:  Solving for p, Initial residual = 0.0406505, Final residual = 0.00362202, No Iterations 4
time step continuity errors : sum local = 0.414351, global = -0.0446334, cumulative = -2.59675
smoothSolver:  Solving for omega, Initial residual = 0.00361784, Final residual = 0.00012602, No Iterations 2
smoothSolver:  Solving for k, Initial residual = 0.00991801, Final residual = 0.00059957, No Iterations 2
ExecutionTime = 1.56151 s  ClockTime = 2 s

Time = 70s

smoothSolver:  Solving for Ux, Initial residual = 0.00803126, Final residual = 0.000580518, No Iterations 5
smoothSolver:  Solving for Uy, Initial residual = 0.0204387, Final residual = 0.00158391, No Iterations 5
GAMG:  Solving for p, Initial residual = 0.0403288, Final residual = 0.00369942, No Iterations 4
time step continuity errors : sum local = 0.426567, global = -0.046512, cumulative = -2.64326
smoothSolver:  Solving for omega, Initial residual = 0.00365003, Final residual = 0.00012627, No Iterations 2
smoothSolver:  Solving for k, Initial residual = 0.00985963, Final residual = 0.000597085, No Iterations 2
ExecutionTime = 1.58108 s  ClockTime = 2 s

Time = 71s

smoothSolver:  Solving for Ux, Initial residual = 0.00801968, Final residual = 0.000579701, No Iterations 5
smoothSolver:  Solving for Uy, Initial residual = 0.0205058, Final residual = 0.00159349, No Iterations 5
GAMG:  Solving for p, Initial residual = 0.0401228, Final residual = 0.00378783, No Iterations 4
time step continuity errors : sum local = 0.439959, global = -0.0484445, cumulative = -2.69171
smoothSolver:  Solving for omega, Initial residual = 0.00362191, Final residual = 0.00012378, No Iterations 2
smoothSolver:  Solving for k, Initial residual = 0.00966235, Final residual = 0.000589166, No Iterations 2
ExecutionTime = 1.6019 s  ClockTime = 2 s

Time = 72s

smoothSolver:  Solving for Ux, Initial residual = 0.00800063, Final residual = 0.000578655, No Iterations 5
smoothSolver:  Solving for Uy, Initial residual = 0.0205977, Final residual = 0.00160502, No Iterations 5
GAMG:  Solving for p, Initial residual = 0.0400353, Final residual = 0.00391214, No Iterations 4
time step continuity errors : sum local = 0.457496, global = -0.0500452, cumulative = -2.74175
smoothSolver:  Solving for omega, Initial residual = 0.00359909, Final residual = 0.000121934, No Iterations 2
smoothSolver:  Solving for k, Initial residual = 0.00958024, Final residual = 0.000600667, No Iterations 2
ExecutionTime = 1.62142 s  ClockTime = 2 s

Time = 73s

smoothSolver:  Solving for Ux, Initial residual = 0.00797695, Final residual = 0.00057751, No Iterations 5
smoothSolver:  Solving for Uy, Initial residual = 0.020746, Final residual = 0.00161951, No Iterations 5
GAMG:  Solving for p, Initial residual = 0.0401808, Final residual = 0.00276003, No Iterations 5
time step continuity errors : sum local = 0.324879, global = 0.0315452, cumulative = -2.71021
smoothSolver:  Solving for omega, Initial residual = 0.00363484, Final residual = 0.00012388, No Iterations 2
smoothSolver:  Solving for k, Initial residual = 0.00959561, Final residual = 0.000591222, No Iterations 2
ExecutionTime = 1.64134 s  ClockTime = 2 s

Time = 74s

smoothSolver:  Solving for Ux, Initial residual = 0.00798877, Final residual = 0.000575165, No Iterations 5
smoothSolver:  Solving for Uy, Initial residual = 0.0209107, Final residual = 0.00163773, No Iterations 5
GAMG:  Solving for p, Initial residual = 0.0396395, Final residual = 0.0033315, No Iterations 4
time step continuity errors : sum local = 0.393888, global = -0.03477, cumulative = -2.74498
smoothSolver:  Solving for omega, Initial residual = 0.00366806, Final residual = 0.000123315, No Iterations 2
smoothSolver:  Solving for k, Initial residual = 0.00944215, Final residual = 0.000583682, No Iterations 2
ExecutionTime = 1.6609 s  ClockTime = 2 s

Time = 75s

smoothSolver:  Solving for Ux, Initial residual = 0.00793398, Final residual = 0.000575304, No Iterations 5
smoothSolver:  Solving for Uy, Initial residual = 0.0210378, Final residual = 0.00165427, No Iterations 5
GAMG:  Solving for p, Initial residual = 0.0400384, Final residual = 0.00385028, No Iterations 4
time step continuity errors : sum local = 0.458644, global = -0.0438031, cumulative = -2.78878
smoothSolver:  Solving for omega, Initial residual = 0.0036581, Final residual = 0.000121342, No Iterations 2
smoothSolver:  Solving for k, Initial residual = 0.0093718, Final residual = 0.000583446, No Iterations 2
ExecutionTime = 1.68033 s  ClockTime = 2 s

Time = 76s

smoothSolver:  Solving for Ux, Initial residual = 0.00793564, Final residual = 0.000577419, No Iterations 5
smoothSolver:  Solving for Uy, Initial residual = 0.0211878, Final residual = 0.00167039, No Iterations 5
GAMG:  Solving for p, Initial residual = 0.0404476, Final residual = 0.00297414, No Iterations 5
time step continuity errors : sum local = 0.356479, global = 0.0367093, cumulative = -2.75207
smoothSolver:  Solving for omega, Initial residual = 0.00367154, Final residual = 0.000122163, No Iterations 2
smoothSolver:  Solving for k, Initial residual = 0.00944164, Final residual = 0.000579476, No Iterations 2
ExecutionTime = 1.70088 s  ClockTime = 2 s

Time = 77s

smoothSolver:  Solving for Ux, Initial residual = 0.00794896, Final residual = 0.000575506, No Iterations 5
smoothSolver:  Solving for Uy, Initial residual = 0.0214139, Final residual = 0.00169503, No Iterations 5
GAMG:  Solving for p, Initial residual = 0.0404882, Final residual = 0.00362938, No Iterations 4
time step continuity errors : sum local = 0.436533, global = 0.0224627, cumulative = -2.72961
smoothSolver:  Solving for omega, Initial residual = 0.00371989, Final residual = 0.000123428, No Iterations 2
smoothSolver:  Solving for k, Initial residual = 0.00927479, Final residual = 0.000571938, No Iterations 2
ExecutionTime = 1.7206 s  ClockTime = 2 s

Time = 78s

smoothSolver:  Solving for Ux, Initial residual = 0.00793014, Final residual = 0.000577421, No Iterations 5
smoothSolver:  Solving for Uy, Initial residual = 0.0216241, Final residual = 0.00172027, No Iterations 5
GAMG:  Solving for p, Initial residual = 0.0411546, Final residual = 0.00386858, No Iterations 4
time step continuity errors : sum local = 0.46736, global = 0.0362872, cumulative = -2.69332
smoothSolver:  Solving for omega, Initial residual = 0.00367739, Final residual = 0.000121516, No Iterations 2
smoothSolver:  Solving for k, Initial residual = 0.00931641, Final residual = 0.000580508, No Iterations 2
ExecutionTime = 1.74037 s  ClockTime = 2 s

Time = 79s

smoothSolver:  Solving for Ux, Initial residual = 0.00794771, Final residual = 0.000580922, No Iterations 5
smoothSolver:  Solving for Uy, Initial residual = 0.0218857, Final residual = 0.00174516, No Iterations 5
GAMG:  Solving for p, Initial residual = 0.0418248, Final residual = 0.00393989, No Iterations 4
time step continuity errors : sum local = 0.477593, global = 0.0564311, cumulative = -2.63689
smoothSolver:  Solving for omega, Initial residual = 0.00370642, Final residual = 0.000121947, No Iterations 2
smoothSolver:  Solving for k, Initial residual = 0.0093528, Final residual = 0.00058574, No Iterations 2
ExecutionTime = 1.76014 s  ClockTime = 2 s

Time = 80s

smoothSolver:  Solving for Ux, Initial residual = 0.00798012, Final residual = 0.000584534, No Iterations 5
smoothSolver:  Solving for Uy, Initial residual = 0.0221557, Final residual = 0.0017683, No Iterations 5
GAMG:  Solving for p, Initial residual = 0.0427835, Final residual = 0.00415648, No Iterations 4
time step continuity errors : sum local = 0.505891, global = 0.0604297, cumulative = -2.57646
smoothSolver:  Solving for omega, Initial residual = 0.00374237, Final residual = 0.000122308, No Iterations 2
smoothSolver:  Solving for k, Initial residual = 0.00939431, Final residual = 0.000584685, No Iterations 2
ExecutionTime = 1.78012 s  ClockTime = 2 s

Time = 81s

smoothSolver:  Solving for Ux, Initial residual = 0.00801686, Final residual = 0.000587224, No Iterations 5
smoothSolver:  Solving for Uy, Initial residual = 0.0224505, Final residual = 0.00179222, No Iterations 5
GAMG:  Solving for p, Initial residual = 0.0438157, Final residual = 0.00343097, No Iterations 5
time step continuity errors : sum local = 0.420632, global = -0.0565673, cumulative = -2.63303
smoothSolver:  Solving for omega, Initial residual = 0.00380702, Final residual = 0.000123812, No Iterations 2
smoothSolver:  Solving for k, Initial residual = 0.00943133, Final residual = 0.000594206, No Iterations 2
ExecutionTime = 1.80023 s  ClockTime = 2 s

Time = 82s

smoothSolver:  Solving for Ux, Initial residual = 0.00802833, Final residual = 0.00058697, No Iterations 5
smoothSolver:  Solving for Uy, Initial residual = 0.0227329, Final residual = 0.00181475, No Iterations 5
GAMG:  Solving for p, Initial residual = 0.0438409, Final residual = 0.00434417, No Iterations 4
time step continuity errors : sum local = 0.538994, global = -0.0492769, cumulative = -2.6823
smoothSolver:  Solving for omega, Initial residual = 0.00384059, Final residual = 0.000123277, No Iterations 2
smoothSolver:  Solving for k, Initial residual = 0.00940389, Final residual = 0.000583647, No Iterations 2
ExecutionTime = 1.8182 s  ClockTime = 2 s

Time = 83s

smoothSolver:  Solving for Ux, Initial residual = 0.0080603, Final residual = 0.000592334, No Iterations 5
smoothSolver:  Solving for Uy, Initial residual = 0.0230126, Final residual = 0.00183443, No Iterations 5
GAMG:  Solving for p, Initial residual = 0.0449931, Final residual = 0.00427295, No Iterations 4
time step continuity errors : sum local = 0.534124, global = -0.0492851, cumulative = -2.73159
smoothSolver:  Solving for omega, Initial residual = 0.0038693, Final residual = 0.000125652, No Iterations 2
smoothSolver:  Solving for k, Initial residual = 0.00944492, Final residual = 0.000589421, No Iterations 2
ExecutionTime = 1.83679 s  ClockTime = 2 s

Time = 84s

smoothSolver:  Solving for Ux, Initial residual = 0.00812926, Final residual = 0.000598913, No Iterations 5
smoothSolver:  Solving for Uy, Initial residual = 0.023279, Final residual = 0.00185194, No Iterations 5
GAMG:  Solving for p, Initial residual = 0.045972, Final residual = 0.00429824, No Iterations 4
time step continuity errors : sum local = 0.539486, global = -0.0514977, cumulative = -2.78309
smoothSolver:  Solving for omega, Initial residual = 0.00393591, Final residual = 0.000127079, No Iterations 2
smoothSolver:  Solving for k, Initial residual = 0.00949178, Final residual = 0.000590626, No Iterations 2
ExecutionTime = 1.85624 s  ClockTime = 2 s

Time = 85s

smoothSolver:  Solving for Ux, Initial residual = 0.0082031, Final residual = 0.00060523, No Iterations 5
smoothSolver:  Solving for Uy, Initial residual = 0.0235041, Final residual = 0.00186948, No Iterations 5
GAMG:  Solving for p, Initial residual = 0.0470336, Final residual = 0.00441721, No Iterations 4
time step continuity errors : sum local = 0.557153, global = -0.0545113, cumulative = -2.8376
smoothSolver:  Solving for omega, Initial residual = 0.00399658, Final residual = 0.000128919, No Iterations 2
smoothSolver:  Solving for k, Initial residual = 0.00955465, Final residual = 0.000592788, No Iterations 2
ExecutionTime = 1.87408 s  ClockTime = 2 s

Time = 86s

smoothSolver:  Solving for Ux, Initial residual = 0.00829652, Final residual = 0.000614324, No Iterations 5
smoothSolver:  Solving for Uy, Initial residual = 0.0237534, Final residual = 0.00188862, No Iterations 5
GAMG:  Solving for p, Initial residual = 0.0481858, Final residual = 0.00458495, No Iterations 4
time step continuity errors : sum local = 0.581991, global = -0.0546554, cumulative = -2.89225
smoothSolver:  Solving for omega, Initial residual = 0.00407993, Final residual = 0.000127471, No Iterations 2
smoothSolver:  Solving for k, Initial residual = 0.00954597, Final residual = 0.00058728, No Iterations 2
ExecutionTime = 1.89418 s  ClockTime = 2 s

Time = 87s

smoothSolver:  Solving for Ux, Initial residual = 0.0083965, Final residual = 0.000625193, No Iterations 5
smoothSolver:  Solving for Uy, Initial residual = 0.0240449, Final residual = 0.00190931, No Iterations 5
GAMG:  Solving for p, Initial residual = 0.0491833, Final residual = 0.00473646, No Iterations 4
time step continuity errors : sum local = 0.606049, global = -0.0539877, cumulative = -2.94624
smoothSolver:  Solving for omega, Initial residual = 0.00412754, Final residual = 0.000130909, No Iterations 2
smoothSolver:  Solving for k, Initial residual = 0.00961797, Final residual = 0.000594511, No Iterations 2
ExecutionTime = 1.9139 s  ClockTime = 2 s

Time = 88s

smoothSolver:  Solving for Ux, Initial residual = 0.00851229, Final residual = 0.000636535, No Iterations 5
smoothSolver:  Solving for Uy, Initial residual = 0.02439, Final residual = 0.00193302, No Iterations 5
GAMG:  Solving for p, Initial residual = 0.0501796, Final residual = 0.00487093, No Iterations 4
time step continuity errors : sum local = 0.628859, global = -0.0537008, cumulative = -2.99994
smoothSolver:  Solving for omega, Initial residual = 0.0042186, Final residual = 0.000132781, No Iterations 2
smoothSolver:  Solving for k, Initial residual = 0.00972155, Final residual = 0.000591542, No Iterations 2
ExecutionTime = 1.93396 s  ClockTime = 2 s

Time = 89s

smoothSolver:  Solving for Ux, Initial residual = 0.00863956, Final residual = 0.000648223, No Iterations 5
smoothSolver:  Solving for Uy, Initial residual = 0.0247763, Final residual = 0.00195956, No Iterations 5
GAMG:  Solving for p, Initial residual = 0.0512082, Final residual = 0.00506122, No Iterations 4
time step continuity errors : sum local = 0.661222, global = -0.0572655, cumulative = -3.05721
smoothSolver:  Solving for omega, Initial residual = 0.0043279, Final residual = 0.00013301, No Iterations 2
smoothSolver:  Solving for k, Initial residual = 0.00967796, Final residual = 0.000593991, No Iterations 2
ExecutionTime = 1.95375 s  ClockTime = 2 s

Time = 90s

smoothSolver:  Solving for Ux, Initial residual = 0.00878879, Final residual = 0.000660734, No Iterations 5
smoothSolver:  Solving for Uy, Initial residual = 0.0251995, Final residual = 0.00198829, No Iterations 5
GAMG:  Solving for p, Initial residual = 0.0522911, Final residual = 0.00380248, No Iterations 5
time step continuity errors : sum local = 0.498915, global = 0.0340777, cumulative = -3.02313
smoothSolver:  Solving for omega, Initial residual = 0.00436126, Final residual = 0.000136604, No Iterations 2
smoothSolver:  Solving for k, Initial residual = 0.00979831, Final residual = 0.00059169, No Iterations 2
ExecutionTime = 1.97422 s  ClockTime = 2 s

Time = 91s

smoothSolver:  Solving for Ux, Initial residual = 0.00896954, Final residual = 0.000672821, No Iterations 5
smoothSolver:  Solving for Uy, Initial residual = 0.0257887, Final residual = 0.00203168, No Iterations 5
GAMG:  Solving for p, Initial residual = 0.0531182, Final residual = 0.00478895, No Iterations 4
time step continuity errors : sum local = 0.628568, global = -0.0352768, cumulative = -3.05841
smoothSolver:  Solving for omega, Initial residual = 0.0044626, Final residual = 0.000137281, No Iterations 2
smoothSolver:  Solving for k, Initial residual = 0.00985943, Final residual = 0.000596306, No Iterations 2
ExecutionTime = 1.99378 s  ClockTime = 2 s

Time = 92s

smoothSolver:  Solving for Ux, Initial residual = 0.00913365, Final residual = 0.000688958, No Iterations 5
smoothSolver:  Solving for Uy, Initial residual = 0.0263119, Final residual = 0.0020701, No Iterations 5
GAMG:  Solving for p, Initial residual = 0.0545156, Final residual = 0.00545004, No Iterations 4
time step continuity errors : sum local = 0.716395, global = -0.0494514, cumulative = -3.10786
smoothSolver:  Solving for omega, Initial residual = 0.00448874, Final residual = 0.000144812, No Iterations 2
smoothSolver:  Solving for k, Initial residual = 0.00996033, Final residual = 0.000602352, No Iterations 2
ExecutionTime = 2.01323 s  ClockTime = 2 s

Time = 93s

smoothSolver:  Solving for Ux, Initial residual = 0.00930232, Final residual = 0.000706714, No Iterations 5
smoothSolver:  Solving for Uy, Initial residual = 0.0268231, Final residual = 0.00210564, No Iterations 5
GAMG:  Solving for p, Initial residual = 0.0559472, Final residual = 0.0043125, No Iterations 5
time step continuity errors : sum local = 0.568629, global = 0.0347599, cumulative = -3.0731
smoothSolver:  Solving for omega, Initial residual = 0.00457656, Final residual = 0.000140788, No Iterations 2
smoothSolver:  Solving for k, Initial residual = 0.0100963, Final residual = 0.000608334, No Iterations 2
ExecutionTime = 2.03415 s  ClockTime = 2 s

Time = 94s

smoothSolver:  Solving for Ux, Initial residual = 0.00948388, Final residual = 0.000719648, No Iterations 5
smoothSolver:  Solving for Uy, Initial residual = 0.0276274, Final residual = 0.00216262, No Iterations 5
GAMG:  Solving for p, Initial residual = 0.0564553, Final residual = 0.00553087, No Iterations 4
time step continuity errors : sum local = 0.72754, global = -0.0225191, cumulative = -3.09562
smoothSolver:  Solving for omega, Initial residual = 0.00459859, Final residual = 0.000145699, No Iterations 2
smoothSolver:  Solving for k, Initial residual = 0.0101488, Final residual = 0.000612872, No Iterations 2
ExecutionTime = 2.0535 s  ClockTime = 2 s

Time = 95s

smoothSolver:  Solving for Ux, Initial residual = 0.00965105, Final residual = 0.000734882, No Iterations 5
smoothSolver:  Solving for Uy, Initial residual = 0.0283034, Final residual = 0.00221008, No Iterations 5
GAMG:  Solving for p, Initial residual = 0.0576923, Final residual = 0.00434289, No Iterations 5
time step continuity errors : sum local = 0.569032, global = 0.0279092, cumulative = -3.06771
smoothSolver:  Solving for omega, Initial residual = 0.00463596, Final residual = 0.000144224, No Iterations 2
smoothSolver:  Solving for k, Initial residual = 0.0102742, Final residual = 0.000624798, No Iterations 2
ExecutionTime = 2.07328 s  ClockTime = 2 s

Time = 96s

smoothSolver:  Solving for Ux, Initial residual = 0.00980758, Final residual = 0.000749554, No Iterations 5
smoothSolver:  Solving for Uy, Initial residual = 0.0289775, Final residual = 0.00225636, No Iterations 5
GAMG:  Solving for p, Initial residual = 0.0578922, Final residual = 0.00412354, No Iterations 5
time step continuity errors : sum local = 0.538158, global = 0.023097, cumulative = -3.04461
smoothSolver:  Solving for omega, Initial residual = 0.00469645, Final residual = 0.000149327, No Iterations 2
smoothSolver:  Solving for k, Initial residual = 0.0103843, Final residual = 0.000629048, No Iterations 2
ExecutionTime = 2.09349 s  ClockTime = 2 s

Time = 97s

smoothSolver:  Solving for Ux, Initial residual = 0.00994391, Final residual = 0.000761828, No Iterations 5
smoothSolver:  Solving for Uy, Initial residual = 0.0297356, Final residual = 0.00230959, No Iterations 5
GAMG:  Solving for p, Initial residual = 0.0584163, Final residual = 0.00414421, No Iterations 5
time step continuity errors : sum local = 0.535489, global = 0.0223546, cumulative = -3.02226
smoothSolver:  Solving for omega, Initial residual = 0.00476976, Final residual = 0.000150345, No Iterations 2
smoothSolver:  Solving for k, Initial residual = 0.0105582, Final residual = 0.000641315, No Iterations 2
ExecutionTime = 2.1136 s  ClockTime = 2 s

Time = 98s

smoothSolver:  Solving for Ux, Initial residual = 0.0100582, Final residual = 0.000773709, No Iterations 5
smoothSolver:  Solving for Uy, Initial residual = 0.0303613, Final residual = 0.00235554, No Iterations 5
GAMG:  Solving for p, Initial residual = 0.0587353, Final residual = 0.00435583, No Iterations 5
time step continuity errors : sum local = 0.556995, global = 0.0229069, cumulative = -2.99935
smoothSolver:  Solving for omega, Initial residual = 0.00477307, Final residual = 0.000146385, No Iterations 2
smoothSolver:  Solving for k, Initial residual = 0.010637, Final residual = 0.000650751, No Iterations 2
ExecutionTime = 2.13403 s  ClockTime = 2 s

Time = 99s

smoothSolver:  Solving for Ux, Initial residual = 0.0101392, Final residual = 0.000783585, No Iterations 5
smoothSolver:  Solving for Uy, Initial residual = 0.0310342, Final residual = 0.00240467, No Iterations 5
GAMG:  Solving for p, Initial residual = 0.0589954, Final residual = 0.00460335, No Iterations 5
time step continuity errors : sum local = 0.582288, global = 0.0257291, cumulative = -2.97362
smoothSolver:  Solving for omega, Initial residual = 0.00481138, Final residual = 0.000149427, No Iterations 2
smoothSolver:  Solving for k, Initial residual = 0.010733, Final residual = 0.000654116, No Iterations 2
ExecutionTime = 2.15448 s  ClockTime = 3 s

Time = 100s

smoothSolver:  Solving for Ux, Initial residual = 0.0102328, Final residual = 0.0007919, No Iterations 5
smoothSolver:  Solving for Uy, Initial residual = 0.0317638, Final residual = 0.00246564, No Iterations 5
GAMG:  Solving for p, Initial residual = 0.0590363, Final residual = 0.00490528, No Iterations 5
time step continuity errors : sum local = 0.613032, global = 0.0270787, cumulative = -2.94654
smoothSolver:  Solving for omega, Initial residual = 0.00480555, Final residual = 0.000149008, No Iterations 2
smoothSolver:  Solving for k, Initial residual = 0.010744, Final residual = 0.000657702, No Iterations 2
ExecutionTime = 2.1999 s  ClockTime = 3 s

streamlines streamlines write:
    Seeded 10 particles
    Sampled 13115 locations

Time = 101s

smoothSolver:  Solving for Ux, Initial residual = 0.0102655, Final residual = 0.000797449, No Iterations 5
smoothSolver:  Solving for Uy, Initial residual = 0.0324928, Final residual = 0.00252503, No Iterations 5
GAMG:  Solving for p, Initial residual = 0.0592644, Final residual = 0.00525272, No Iterations 5
time step continuity errors : sum local = 0.64377, global = 0.0295757, cumulative = -2.91697
smoothSolver:  Solving for omega, Initial residual = 0.00482061, Final residual = 0.000149712, No Iterations 2
smoothSolver:  Solving for k, Initial residual = 0.0108534, Final residual = 0.000661787, No Iterations 2
ExecutionTime = 2.2964 s  ClockTime = 3 s

Time = 102s

smoothSolver:  Solving for Ux, Initial residual = 0.0102834, Final residual = 0.000801667, No Iterations 5
smoothSolver:  Solving for Uy, Initial residual = 0.0331371, Final residual = 0.00258495, No Iterations 5
GAMG:  Solving for p, Initial residual = 0.0594991, Final residual = 0.00552604, No Iterations 5
time step continuity errors : sum local = 0.662744, global = 0.0339576, cumulative = -2.88301
smoothSolver:  Solving for omega, Initial residual = 0.0048326, Final residual = 0.000149608, No Iterations 2
smoothSolver:  Solving for k, Initial residual = 0.0109261, Final residual = 0.000669721, No Iterations 2
ExecutionTime = 2.31628 s  ClockTime = 3 s

Time = 103s

smoothSolver:  Solving for Ux, Initial residual = 0.0102622, Final residual = 0.000803815, No Iterations 5
smoothSolver:  Solving for Uy, Initial residual = 0.0337277, Final residual = 0.00264753, No Iterations 5
GAMG:  Solving for p, Initial residual = 0.0597033, Final residual = 0.00439703, No Iterations 6
time step continuity errors : sum local = 0.514518, global = -0.0237588, cumulative = -2.90677
smoothSolver:  Solving for omega, Initial residual = 0.00482753, Final residual = 0.000149373, No Iterations 2
smoothSolver:  Solving for k, Initial residual = 0.0108602, Final residual = 0.000669706, No Iterations 2
ExecutionTime = 2.33661 s  ClockTime = 3 s

Time = 104s

smoothSolver:  Solving for Ux, Initial residual = 0.0102307, Final residual = 0.000802306, No Iterations 5
smoothSolver:  Solving for Uy, Initial residual = 0.0342716, Final residual = 0.00271663, No Iterations 5
GAMG:  Solving for p, Initial residual = 0.0595377, Final residual = 0.00458965, No Iterations 6
time step continuity errors : sum local = 0.526123, global = -0.0266968, cumulative = -2.93346
smoothSolver:  Solving for omega, Initial residual = 0.00473766, Final residual = 0.000148643, No Iterations 2
smoothSolver:  Solving for k, Initial residual = 0.0108846, Final residual = 0.000666222, No Iterations 2
ExecutionTime = 2.35696 s  ClockTime = 3 s

Time = 105s

smoothSolver:  Solving for Ux, Initial residual = 0.0101558, Final residual = 0.000803301, No Iterations 5
smoothSolver:  Solving for Uy, Initial residual = 0.0346272, Final residual = 0.00277805, No Iterations 5
GAMG:  Solving for p, Initial residual = 0.0596863, Final residual = 0.00473639, No Iterations 6
time step continuity errors : sum local = 0.52328, global = -0.0233358, cumulative = -2.9568
smoothSolver:  Solving for omega, Initial residual = 0.00479395, Final residual = 0.000152165, No Iterations 2
smoothSolver:  Solving for k, Initial residual = 0.0109262, Final residual = 0.000670814, No Iterations 2
ExecutionTime = 2.3769 s  ClockTime = 3 s

Time = 106s

smoothSolver:  Solving for Ux, Initial residual = 0.0100282, Final residual = 0.000799862, No Iterations 5
smoothSolver:  Solving for Uy, Initial residual = 0.0349479, Final residual = 0.00284313, No Iterations 5
GAMG:  Solving for p, Initial residual = 0.0595837, Final residual = 0.0045352, No Iterations 6
time step continuity errors : sum local = 0.484242, global = -0.0168858, cumulative = -2.97368
smoothSolver:  Solving for omega, Initial residual = 0.00472302, Final residual = 0.000149647, No Iterations 2
smoothSolver:  Solving for k, Initial residual = 0.0108789, Final residual = 0.000668311, No Iterations 2
ExecutionTime = 2.39672 s  ClockTime = 3 s

Time = 107s

smoothSolver:  Solving for Ux, Initial residual = 0.00987472, Final residual = 0.000794737, No Iterations 5
smoothSolver:  Solving for Uy, Initial residual = 0.0352511, Final residual = 0.00290362, No Iterations 5
GAMG:  Solving for p, Initial residual = 0.0588232, Final residual = 0.0056729, No Iterations 5
time step continuity errors : sum local = 0.585384, global = -0.0197404, cumulative = -2.99343
smoothSolver:  Solving for omega, Initial residual = 0.00469589, Final residual = 0.000148779, No Iterations 2
smoothSolver:  Solving for k, Initial residual = 0.0108301, Final residual = 0.000661576, No Iterations 2
ExecutionTime = 2.41641 s  ClockTime = 3 s

Time = 108s

smoothSolver:  Solving for Ux, Initial residual = 0.00969085, Final residual = 0.000791326, No Iterations 5
smoothSolver:  Solving for Uy, Initial residual = 0.0352504, Final residual = 0.00293914, No Iterations 5
GAMG:  Solving for p, Initial residual = 0.0583015, Final residual = 0.0050089, No Iterations 6
time step continuity errors : sum local = 0.498141, global = 0.0245719, cumulative = -2.96885
smoothSolver:  Solving for omega, Initial residual = 0.00461007, Final residual = 0.00014751, No Iterations 2
smoothSolver:  Solving for k, Initial residual = 0.0107947, Final residual = 0.000663322, No Iterations 2
ExecutionTime = 2.4362 s  ClockTime = 3 s

Time = 109s

smoothSolver:  Solving for Ux, Initial residual = 0.00946059, Final residual = 0.000784254, No Iterations 5
smoothSolver:  Solving for Uy, Initial residual = 0.0352378, Final residual = 0.00295474, No Iterations 5
GAMG:  Solving for p, Initial residual = 0.0572992, Final residual = 0.00508599, No Iterations 6
time step continuity errors : sum local = 0.48432, global = 0.0286024, cumulative = -2.94025
smoothSolver:  Solving for omega, Initial residual = 0.00457759, Final residual = 0.00014595, No Iterations 2
smoothSolver:  Solving for k, Initial residual = 0.010754, Final residual = 0.000663172, No Iterations 2
ExecutionTime = 2.45645 s  ClockTime = 3 s

Time = 110s

smoothSolver:  Solving for Ux, Initial residual = 0.00923681, Final residual = 0.000778515, No Iterations 5
smoothSolver:  Solving for Uy, Initial residual = 0.0350538, Final residual = 0.00294571, No Iterations 5
GAMG:  Solving for p, Initial residual = 0.0564731, Final residual = 0.0049354, No Iterations 6
time step continuity errors : sum local = 0.449011, global = 0.0301062, cumulative = -2.91014
smoothSolver:  Solving for omega, Initial residual = 0.00455519, Final residual = 0.000144674, No Iterations 2
smoothSolver:  Solving for k, Initial residual = 0.0106883, Final residual = 0.000664526, No Iterations 2
ExecutionTime = 2.47695 s  ClockTime = 3 s

Time = 111s

smoothSolver:  Solving for Ux, Initial residual = 0.00899192, Final residual = 0.000773396, No Iterations 5
smoothSolver:  Solving for Uy, Initial residual = 0.0346739, Final residual = 0.0029253, No Iterations 5
GAMG:  Solving for p, Initial residual = 0.0553679, Final residual = 0.00475626, No Iterations 6
time step continuity errors : sum local = 0.413536, global = 0.0295782, cumulative = -2.88057
smoothSolver:  Solving for omega, Initial residual = 0.00452135, Final residual = 0.000142424, No Iterations 2
smoothSolver:  Solving for k, Initial residual = 0.0105906, Final residual = 0.000665023, No Iterations 2
ExecutionTime = 2.49687 s  ClockTime = 3 s

Time = 112s

smoothSolver:  Solving for Ux, Initial residual = 0.00876332, Final residual = 0.00076989, No Iterations 5
smoothSolver:  Solving for Uy, Initial residual = 0.0342719, Final residual = 0.00290069, No Iterations 5
GAMG:  Solving for p, Initial residual = 0.055057, Final residual = 0.00537642, No Iterations 5
time step continuity errors : sum local = 0.447553, global = -0.0286569, cumulative = -2.90922
smoothSolver:  Solving for omega, Initial residual = 0.0044556, Final residual = 0.000140345, No Iterations 2
smoothSolver:  Solving for k, Initial residual = 0.0105725, Final residual = 0.000677288, No Iterations 2
ExecutionTime = 2.51625 s  ClockTime = 3 s

Time = 113s

smoothSolver:  Solving for Ux, Initial residual = 0.00859256, Final residual = 0.000767298, No Iterations 5
smoothSolver:  Solving for Uy, Initial residual = 0.0337632, Final residual = 0.00286849, No Iterations 5
GAMG:  Solving for p, Initial residual = 0.0551391, Final residual = 0.00508402, No Iterations 5
time step continuity errors : sum local = 0.406469, global = -0.0307631, cumulative = -2.93999
smoothSolver:  Solving for omega, Initial residual = 0.00445867, Final residual = 0.0001409, No Iterations 2
smoothSolver:  Solving for k, Initial residual = 0.0104553, Final residual = 0.000682844, No Iterations 2
ExecutionTime = 2.53588 s  ClockTime = 3 s

Time = 114s

smoothSolver:  Solving for Ux, Initial residual = 0.00839169, Final residual = 0.000757414, No Iterations 5
smoothSolver:  Solving for Uy, Initial residual = 0.0333294, Final residual = 0.00285379, No Iterations 5
GAMG:  Solving for p, Initial residual = 0.054163, Final residual = 0.00394793, No Iterations 5
time step continuity errors : sum local = 0.304833, global = -0.0161233, cumulative = -2.95611
smoothSolver:  Solving for omega, Initial residual = 0.00441458, Final residual = 0.000139305, No Iterations 2
smoothSolver:  Solving for k, Initial residual = 0.0103491, Final residual = 0.000695477, No Iterations 2
ExecutionTime = 2.5555 s  ClockTime = 3 s

Time = 115s

smoothSolver:  Solving for Ux, Initial residual = 0.00819915, Final residual = 0.000743243, No Iterations 5
smoothSolver:  Solving for Uy, Initial residual = 0.032851, Final residual = 0.00284783, No Iterations 5
GAMG:  Solving for p, Initial residual = 0.0530512, Final residual = 0.00454946, No Iterations 4
time step continuity errors : sum local = 0.340881, global = -0.0209168, cumulative = -2.97703
smoothSolver:  Solving for omega, Initial residual = 0.00438575, Final residual = 0.000137751, No Iterations 2
smoothSolver:  Solving for k, Initial residual = 0.010288, Final residual = 0.000696359, No Iterations 2
ExecutionTime = 2.57435 s  ClockTime = 3 s

Time = 116s

smoothSolver:  Solving for Ux, Initial residual = 0.00803499, Final residual = 0.000736748, No Iterations 5
smoothSolver:  Solving for Uy, Initial residual = 0.0319836, Final residual = 0.00282238, No Iterations 5
GAMG:  Solving for p, Initial residual = 0.0531531, Final residual = 0.00516297, No Iterations 4
time step continuity errors : sum local = 0.376505, global = -0.0314187, cumulative = -3.00845
[...]
GAMG:  Solving for p, Initial residual = 0.00460733, Final residual = 0.000260784, No Iterations 3
time step continuity errors : sum local = 0.00965911, global = -0.00051402, cumulative = -3.67062
smoothSolver:  Solving for omega, Initial residual = 0.000381448, Final residual = 1.29399e-05, No Iterations 2
smoothSolver:  Solving for k, Initial residual = 0.000526645, Final residual = 4.08935e-05, No Iterations 2
ExecutionTime = 13.4632 s  ClockTime = 14 s

Time = 658s

smoothSolver:  Solving for Ux, Initial residual = 0.000194231, Final residual = 1.25757e-05, No Iterations 5
smoothSolver:  Solving for Uy, Initial residual = 0.0020879, Final residual = 0.000138347, No Iterations 5
GAMG:  Solving for p, Initial residual = 0.00452605, Final residual = 0.000428857, No Iterations 2
time step continuity errors : sum local = 0.0158439, global = -0.000369816, cumulative = -3.67099
smoothSolver:  Solving for omega, Initial residual = 0.000443088, Final residual = 1.76285e-05, No Iterations 2
smoothSolver:  Solving for k, Initial residual = 0.000554044, Final residual = 4.31455e-05, No Iterations 2
ExecutionTime = 13.4827 s  ClockTime = 14 s

Time = 659s

smoothSolver:  Solving for Ux, Initial residual = 0.000193115, Final residual = 1.25566e-05, No Iterations 5
smoothSolver:  Solving for Uy, Initial residual = 0.00209844, Final residual = 0.000139046, No Iterations 5
GAMG:  Solving for p, Initial residual = 0.00488002, Final residual = 0.000271181, No Iterations 3
time step continuity errors : sum local = 0.0100251, global = -0.00197399, cumulative = -3.67297
smoothSolver:  Solving for omega, Initial residual = 0.000407197, Final residual = 1.37305e-05, No Iterations 2
smoothSolver:  Solving for k, Initial residual = 0.000553528, Final residual = 4.26401e-05, No Iterations 2
ExecutionTime = 13.5029 s  ClockTime = 14 s

Time = 660s

smoothSolver:  Solving for Ux, Initial residual = 0.000186942, Final residual = 1.20393e-05, No Iterations 5
smoothSolver:  Solving for Uy, Initial residual = 0.00216908, Final residual = 0.000142201, No Iterations 5
GAMG:  Solving for p, Initial residual = 0.00438432, Final residual = 0.000429631, No Iterations 2
time step continuity errors : sum local = 0.0158488, global = -0.000283627, cumulative = -3.67325
smoothSolver:  Solving for omega, Initial residual = 0.000375013, Final residual = 1.22581e-05, No Iterations 2
smoothSolver:  Solving for k, Initial residual = 0.00052375, Final residual = 4.13744e-05, No Iterations 2
ExecutionTime = 13.524 s  ClockTime = 14 s

Time = 661s

smoothSolver:  Solving for Ux, Initial residual = 0.000180474, Final residual = 1.18972e-05, No Iterations 5
smoothSolver:  Solving for Uy, Initial residual = 0.00215131, Final residual = 0.000142208, No Iterations 5
GAMG:  Solving for p, Initial residual = 0.00442871, Final residual = 0.000258143, No Iterations 3
time step continuity errors : sum local = 0.00951203, global = -0.00150114, cumulative = -3.67475
smoothSolver:  Solving for omega, Initial residual = 0.000376856, Final residual = 1.35218e-05, No Iterations 2
smoothSolver:  Solving for k, Initial residual = 0.000546293, Final residual = 4.35759e-05, No Iterations 2
ExecutionTime = 13.5454 s  ClockTime = 14 s

Time = 662s

smoothSolver:  Solving for Ux, Initial residual = 0.000177816, Final residual = 1.1566e-05, No Iterations 5
smoothSolver:  Solving for Uy, Initial residual = 0.00216454, Final residual = 0.000143482, No Iterations 5
GAMG:  Solving for p, Initial residual = 0.00419466, Final residual = 0.000358833, No Iterations 2
time step continuity errors : sum local = 0.0131919, global = -0.000687151, cumulative = -3.67544
smoothSolver:  Solving for omega, Initial residual = 0.000390269, Final residual = 1.25468e-05, No Iterations 2
smoothSolver:  Solving for k, Initial residual = 0.000523307, Final residual = 4.12878e-05, No Iterations 2
ExecutionTime = 13.5658 s  ClockTime = 14 s

Time = 663s

smoothSolver:  Solving for Ux, Initial residual = 0.000173487, Final residual = 1.14061e-05, No Iterations 5
smoothSolver:  Solving for Uy, Initial residual = 0.00210043, Final residual = 0.000142053, No Iterations 5
GAMG:  Solving for p, Initial residual = 0.00427864, Final residual = 0.000273628, No Iterations 3
time step continuity errors : sum local = 0.0100631, global = -0.00141527, cumulative = -3.67685
smoothSolver:  Solving for omega, Initial residual = 0.000404751, Final residual = 1.24886e-05, No Iterations 2
smoothSolver:  Solving for k, Initial residual = 0.000539658, Final residual = 4.00855e-05, No Iterations 2
ExecutionTime = 13.5866 s  ClockTime = 14 s

Time = 664s

smoothSolver:  Solving for Ux, Initial residual = 0.000171054, Final residual = 1.10246e-05, No Iterations 5
smoothSolver:  Solving for Uy, Initial residual = 0.00211395, Final residual = 0.000141054, No Iterations 5
GAMG:  Solving for p, Initial residual = 0.0043858, Final residual = 0.000351986, No Iterations 2
time step continuity errors : sum local = 0.0129156, global = -0.000419498, cumulative = -3.67727
smoothSolver:  Solving for omega, Initial residual = 0.000361027, Final residual = 1.25651e-05, No Iterations 2
smoothSolver:  Solving for k, Initial residual = 0.000533188, Final residual = 4.23534e-05, No Iterations 2
ExecutionTime = 13.6056 s  ClockTime = 14 s

Time = 665s

smoothSolver:  Solving for Ux, Initial residual = 0.000163504, Final residual = 1.08167e-05, No Iterations 5
smoothSolver:  Solving for Uy, Initial residual = 0.00205252, Final residual = 0.000138286, No Iterations 5
GAMG:  Solving for p, Initial residual = 0.00395701, Final residual = 0.000369242, No Iterations 2
time step continuity errors : sum local = 0.0135462, global = 2.29191e-05, cumulative = -3.67725
smoothSolver:  Solving for omega, Initial residual = 0.000358802, Final residual = 1.21476e-05, No Iterations 2
smoothSolver:  Solving for k, Initial residual = 0.000522416, Final residual = 4.19582e-05, No Iterations 2
ExecutionTime = 13.6247 s  ClockTime = 14 s

Time = 666s

smoothSolver:  Solving for Ux, Initial residual = 0.000157369, Final residual = 1.0358e-05, No Iterations 5
smoothSolver:  Solving for Uy, Initial residual = 0.00199972, Final residual = 0.000134519, No Iterations 5
GAMG:  Solving for p, Initial residual = 0.00388081, Final residual = 0.000386728, No Iterations 2
time step continuity errors : sum local = 0.0141809, global = 0.00074224, cumulative = -3.67651
smoothSolver:  Solving for omega, Initial residual = 0.000341538, Final residual = 1.19352e-05, No Iterations 2
smoothSolver:  Solving for k, Initial residual = 0.000506435, Final residual = 4.07084e-05, No Iterations 2
ExecutionTime = 13.6428 s  ClockTime = 14 s

Time = 667s

smoothSolver:  Solving for Ux, Initial residual = 0.000152142, Final residual = 9.98707e-06, No Iterations 5
smoothSolver:  Solving for Uy, Initial residual = 0.00193581, Final residual = 0.000131109, No Iterations 5
GAMG:  Solving for p, Initial residual = 0.00363188, Final residual = 0.000212549, No Iterations 3
time step continuity errors : sum local = 0.00779571, global = -0.00107175, cumulative = -3.67758
smoothSolver:  Solving for omega, Initial residual = 0.00035528, Final residual = 1.2189e-05, No Iterations 2
smoothSolver:  Solving for k, Initial residual = 0.000533601, Final residual = 4.0475e-05, No Iterations 2
ExecutionTime = 13.6626 s  ClockTime = 14 s

Time = 668s

smoothSolver:  Solving for Ux, Initial residual = 0.000147261, Final residual = 9.63574e-06, No Iterations 5
smoothSolver:  Solving for Uy, Initial residual = 0.00190716, Final residual = 0.000127528, No Iterations 5
GAMG:  Solving for p, Initial residual = 0.00356083, Final residual = 0.000324622, No Iterations 2
time step continuity errors : sum local = 0.0119049, global = -0.000431155, cumulative = -3.67801
smoothSolver:  Solving for omega, Initial residual = 0.00037273, Final residual = 1.22537e-05, No Iterations 2
smoothSolver:  Solving for k, Initial residual = 0.000502455, Final residual = 4.10646e-05, No Iterations 2
ExecutionTime = 13.6816 s  ClockTime = 14 s

Time = 669s

smoothSolver:  Solving for Ux, Initial residual = 0.000140425, Final residual = 9.34552e-06, No Iterations 5
smoothSolver:  Solving for Uy, Initial residual = 0.00182437, Final residual = 0.000123183, No Iterations 5
GAMG:  Solving for p, Initial residual = 0.0032767, Final residual = 0.000214408, No Iterations 3
time step continuity errors : sum local = 0.00786865, global = 0.000571874, cumulative = -3.67744
smoothSolver:  Solving for omega, Initial residual = 0.000342243, Final residual = 1.12635e-05, No Iterations 2
smoothSolver:  Solving for k, Initial residual = 0.000481757, Final residual = 4.01397e-05, No Iterations 2
ExecutionTime = 13.7008 s  ClockTime = 14 s

Time = 670s

smoothSolver:  Solving for Ux, Initial residual = 0.000137639, Final residual = 8.95974e-06, No Iterations 5
smoothSolver:  Solving for Uy, Initial residual = 0.0017488, Final residual = 0.000118649, No Iterations 5
GAMG:  Solving for p, Initial residual = 0.00318597, Final residual = 0.000277353, No Iterations 2
time step continuity errors : sum local = 0.0101758, global = 0.000126075, cumulative = -3.67731
smoothSolver:  Solving for omega, Initial residual = 0.000391634, Final residual = 1.2986e-05, No Iterations 2
smoothSolver:  Solving for k, Initial residual = 0.000513454, Final residual = 4.18204e-05, No Iterations 2
ExecutionTime = 13.719 s  ClockTime = 14 s

Time = 671s

smoothSolver:  Solving for Ux, Initial residual = 0.000132788, Final residual = 8.72489e-06, No Iterations 5
smoothSolver:  Solving for Uy, Initial residual = 0.00167554, Final residual = 0.000114462, No Iterations 5
GAMG:  Solving for p, Initial residual = 0.00326097, Final residual = 0.000318615, No Iterations 2
time step continuity errors : sum local = 0.0117049, global = 4.59884e-05, cumulative = -3.67727
smoothSolver:  Solving for omega, Initial residual = 0.000418432, Final residual = 1.182e-05, No Iterations 2
smoothSolver:  Solving for k, Initial residual = 0.000528759, Final residual = 4.01203e-05, No Iterations 2
ExecutionTime = 13.7382 s  ClockTime = 14 s

Time = 672s

smoothSolver:  Solving for Ux, Initial residual = 0.000134213, Final residual = 8.36356e-06, No Iterations 5
smoothSolver:  Solving for Uy, Initial residual = 0.0016088, Final residual = 0.0001087, No Iterations 5
GAMG:  Solving for p, Initial residual = 0.00370043, Final residual = 0.000324439, No Iterations 2
time step continuity errors : sum local = 0.0119135, global = 0.000139623, cumulative = -3.67713
smoothSolver:  Solving for omega, Initial residual = 0.000342744, Final residual = 1.23196e-05, No Iterations 2
smoothSolver:  Solving for k, Initial residual = 0.000491597, Final residual = 4.06069e-05, No Iterations 2
ExecutionTime = 13.7564 s  ClockTime = 14 s

Time = 673s

smoothSolver:  Solving for Ux, Initial residual = 0.000126494, Final residual = 8.02132e-06, No Iterations 5
smoothSolver:  Solving for Uy, Initial residual = 0.00152029, Final residual = 0.000103499, No Iterations 5
GAMG:  Solving for p, Initial residual = 0.00337248, Final residual = 0.000308007, No Iterations 2
time step continuity errors : sum local = 0.0113106, global = 4.2142e-05, cumulative = -3.67708
smoothSolver:  Solving for omega, Initial residual = 0.000341778, Final residual = 1.08711e-05, No Iterations 2
smoothSolver:  Solving for k, Initial residual = 0.000504425, Final residual = 4.15796e-05, No Iterations 2
ExecutionTime = 13.775 s  ClockTime = 14 s

Time = 674s

smoothSolver:  Solving for Ux, Initial residual = 0.000121329, Final residual = 7.67981e-06, No Iterations 5
smoothSolver:  Solving for Uy, Initial residual = 0.00147505, Final residual = 9.97992e-05, No Iterations 5
GAMG:  Solving for p, Initial residual = 0.00292536, Final residual = 0.000286513, No Iterations 2
time step continuity errors : sum local = 0.0105235, global = 3.96577e-05, cumulative = -3.67704
smoothSolver:  Solving for omega, Initial residual = 0.000357688, Final residual = 1.24588e-05, No Iterations 2
smoothSolver:  Solving for k, Initial residual = 0.000498478, Final residual = 4.07488e-05, No Iterations 2
ExecutionTime = 13.7933 s  ClockTime = 14 s

Time = 675s

smoothSolver:  Solving for Ux, Initial residual = 0.000118633, Final residual = 7.33449e-06, No Iterations 5
smoothSolver:  Solving for Uy, Initial residual = 0.00143479, Final residual = 9.6474e-05, No Iterations 5
GAMG:  Solving for p, Initial residual = 0.00319284, Final residual = 0.000289591, No Iterations 2
time step continuity errors : sum local = 0.0106404, global = -0.000371503, cumulative = -3.67742
smoothSolver:  Solving for omega, Initial residual = 0.000351663, Final residual = 1.08461e-05, No Iterations 2
smoothSolver:  Solving for k, Initial residual = 0.000510637, Final residual = 3.90912e-05, No Iterations 2
ExecutionTime = 13.8115 s  ClockTime = 14 s

Time = 676s

smoothSolver:  Solving for Ux, Initial residual = 0.000115436, Final residual = 1.13116e-05, No Iterations 4
smoothSolver:  Solving for Uy, Initial residual = 0.00136963, Final residual = 9.24038e-05, No Iterations 5
GAMG:  Solving for p, Initial residual = 0.00327495, Final residual = 0.00028736, No Iterations 2
time step continuity errors : sum local = 0.010563, global = -0.000514689, cumulative = -3.67793
smoothSolver:  Solving for omega, Initial residual = 0.00036208, Final residual = 1.15861e-05, No Iterations 2
smoothSolver:  Solving for k, Initial residual = 0.000493702, Final residual = 3.9927e-05, No Iterations 2
ExecutionTime = 13.8301 s  ClockTime = 14 s

Time = 677s

smoothSolver:  Solving for Ux, Initial residual = 0.000108435, Final residual = 6.68598e-06, No Iterations 5
smoothSolver:  Solving for Uy, Initial residual = 0.00131392, Final residual = 8.82219e-05, No Iterations 5
GAMG:  Solving for p, Initial residual = 0.0031055, Final residual = 0.000291072, No Iterations 2
time step continuity errors : sum local = 0.010707, global = -0.000945847, cumulative = -3.67888
smoothSolver:  Solving for omega, Initial residual = 0.000330084, Final residual = 1.01588e-05, No Iterations 2
smoothSolver:  Solving for k, Initial residual = 0.000501481, Final residual = 3.78447e-05, No Iterations 2
ExecutionTime = 13.8485 s  ClockTime = 14 s

Time = 678s

smoothSolver:  Solving for Ux, Initial residual = 0.000105217, Final residual = 1.02263e-05, No Iterations 4
smoothSolver:  Solving for Uy, Initial residual = 0.00126914, Final residual = 8.48667e-05, No Iterations 5
GAMG:  Solving for p, Initial residual = 0.00287424, Final residual = 0.000278139, No Iterations 2
time step continuity errors : sum local = 0.0102359, global = -0.0011482, cumulative = -3.68002
smoothSolver:  Solving for omega, Initial residual = 0.000362353, Final residual = 1.07515e-05, No Iterations 2
smoothSolver:  Solving for k, Initial residual = 0.000507627, Final residual = 4.02338e-05, No Iterations 2
ExecutionTime = 13.8663 s  ClockTime = 14 s

Time = 679s

smoothSolver:  Solving for Ux, Initial residual = 0.000102999, Final residual = 9.77195e-06, No Iterations 4
smoothSolver:  Solving for Uy, Initial residual = 0.00121894, Final residual = 8.16322e-05, No Iterations 5
GAMG:  Solving for p, Initial residual = 0.00298455, Final residual = 0.000287781, No Iterations 2
time step continuity errors : sum local = 0.0105968, global = -0.00119945, cumulative = -3.68122
smoothSolver:  Solving for omega, Initial residual = 0.000361405, Final residual = 1.23926e-05, No Iterations 2
smoothSolver:  Solving for k, Initial residual = 0.00051429, Final residual = 3.86463e-05, No Iterations 2
ExecutionTime = 13.8845 s  ClockTime = 14 s

Time = 680s

smoothSolver:  Solving for Ux, Initial residual = 9.86522e-05, Final residual = 9.37478e-06, No Iterations 4
smoothSolver:  Solving for Uy, Initial residual = 0.00115121, Final residual = 7.82238e-05, No Iterations 5
GAMG:  Solving for p, Initial residual = 0.00287268, Final residual = 0.000275618, No Iterations 2
time step continuity errors : sum local = 0.0101529, global = -0.00124831, cumulative = -3.68247
smoothSolver:  Solving for omega, Initial residual = 0.000357649, Final residual = 1.14378e-05, No Iterations 2
smoothSolver:  Solving for k, Initial residual = 0.000457291, Final residual = 3.9406e-05, No Iterations 2
ExecutionTime = 13.9028 s  ClockTime = 14 s

Time = 681s

smoothSolver:  Solving for Ux, Initial residual = 9.19312e-05, Final residual = 8.90645e-06, No Iterations 4
smoothSolver:  Solving for Uy, Initial residual = 0.00107505, Final residual = 7.54093e-05, No Iterations 5
GAMG:  Solving for p, Initial residual = 0.00268653, Final residual = 0.000152777, No Iterations 3
time step continuity errors : sum local = 0.00563034, global = 0.000609293, cumulative = -3.68186
smoothSolver:  Solving for omega, Initial residual = 0.000332375, Final residual = 9.67512e-06, No Iterations 2
smoothSolver:  Solving for k, Initial residual = 0.000484584, Final residual = 3.91682e-05, No Iterations 2
ExecutionTime = 13.9214 s  ClockTime = 14 s

Time = 682s

smoothSolver:  Solving for Ux, Initial residual = 8.85496e-05, Final residual = 8.40972e-06, No Iterations 4
smoothSolver:  Solving for Uy, Initial residual = 0.00106972, Final residual = 7.32128e-05, No Iterations 5
GAMG:  Solving for p, Initial residual = 0.00251725, Final residual = 0.000212409, No Iterations 2
time step continuity errors : sum local = 0.00783123, global = -0.000855221, cumulative = -3.68272
smoothSolver:  Solving for omega, Initial residual = 0.000346289, Final residual = 1.07039e-05, No Iterations 2
smoothSolver:  Solving for k, Initial residual = 0.000488373, Final residual = 3.89854e-05, No Iterations 2
ExecutionTime = 13.9397 s  ClockTime = 14 s

Time = 683s

smoothSolver:  Solving for Ux, Initial residual = 8.57812e-05, Final residual = 8.0306e-06, No Iterations 4
smoothSolver:  Solving for Uy, Initial residual = 0.00103124, Final residual = 7.09836e-05, No Iterations 5
GAMG:  Solving for p, Initial residual = 0.00268374, Final residual = 0.0002428, No Iterations 2
time step continuity errors : sum local = 0.00894891, global = -0.00113003, cumulative = -3.68385
smoothSolver:  Solving for omega, Initial residual = 0.000342694, Final residual = 8.97772e-06, No Iterations 2
smoothSolver:  Solving for k, Initial residual = 0.000485325, Final residual = 3.85931e-05, No Iterations 2
ExecutionTime = 13.9578 s  ClockTime = 14 s

Time = 684s

smoothSolver:  Solving for Ux, Initial residual = 8.33379e-05, Final residual = 7.62781e-06, No Iterations 4
smoothSolver:  Solving for Uy, Initial residual = 0.00101801, Final residual = 6.9054e-05, No Iterations 5
GAMG:  Solving for p, Initial residual = 0.00278939, Final residual = 0.000248225, No Iterations 2
time step continuity errors : sum local = 0.00915662, global = -0.00117864, cumulative = -3.68503
smoothSolver:  Solving for omega, Initial residual = 0.000387534, Final residual = 1.15456e-05, No Iterations 2
smoothSolver:  Solving for k, Initial residual = 0.000489208, Final residual = 3.7766e-05, No Iterations 2
ExecutionTime = 13.9767 s  ClockTime = 14 s

Time = 685s

smoothSolver:  Solving for Ux, Initial residual = 8.0765e-05, Final residual = 7.26576e-06, No Iterations 4
smoothSolver:  Solving for Uy, Initial residual = 0.000978239, Final residual = 6.66994e-05, No Iterations 5
GAMG:  Solving for p, Initial residual = 0.00285536, Final residual = 0.0002572, No Iterations 2
time step continuity errors : sum local = 0.00948439, global = -0.00116478, cumulative = -3.68619
smoothSolver:  Solving for omega, Initial residual = 0.000365769, Final residual = 8.85353e-06, No Iterations 2
smoothSolver:  Solving for k, Initial residual = 0.000458195, Final residual = 3.64877e-05, No Iterations 2
ExecutionTime = 13.9952 s  ClockTime = 14 s


SIMPLE solution converged in 685 iterations

streamlines streamlines write:
    Seeded 10 particles
    Sampled 12035 locations

End

