/*---------------------------------------------------------------------------*\
  =========                 |
  \\      /  F ield         | OpenFOAM: The Open Source CFD Toolbox
   \\    /   O peration     | Website:  https://openfoam.org
    \\  /    A nd           | Version:  13
     \\/     M anipulation  |
\*---------------------------------------------------------------------------*/
Build  : 13-cde978a97c93
Exec   : foamRun
Date   : Feb 05 2026
Time   : 19:52:57
Host   : "JOO-DESKTOP"
PID    : 7696
I/O    : uncollated
Case   : /home/joo/OpenFOAM/joo-13/run/portfolio_openfoam/trackA/11_realizableKE
nProcs : 1
sigFpe : Enabling floating point exception trapping (FOAM_SIGFPE).
fileModificationChecking : Monitoring run-time modified files using timeStampMaster (fileModificationSkew 10)
allowSystemOperations : Allowing user-supplied system call operations

// * * * * * * * * * * * * * * * * * * * * * * * * * * * * * * * * * * * * * //
Create time

Create mesh for time = 0

Selecting solver incompressibleFluid
Selecting viscosity model constant
Selecting turbulence model type RAS
    Selecting RAS turbulence model realizableKE
        Selecting generalised Newtonian model Newtonian
No MRF models present


SIMPLE: Convergence criteria found
        p: tolerance 0.01
        U: tolerance 0.001
        "(k|epsilon|omega|f|v2)": tolerance 0.001


SIMPLE: Operating solver in steady-state mode with 1 outer corrector
SIMPLE: Operating solver in SIMPLE mode



Starting time loop

streamlines streamlines:
    automatic track length specified through number of sub cycles : 5

streamlines streamlines write:
    Seeded 10 particles
    Sampled 114 locations

Time = 1s

smoothSolver:  Solving for Ux, Initial residual = 1, Final residual = 0.0425223, No Iterations 1
smoothSolver:  Solving for Uy, Initial residual = 1, Final residual = 0.0432839, No Iterations 1
GAMG:  Solving for p, Initial residual = 1, Final residual = 0.0682605, No Iterations 17
time step continuity errors : sum local = 1.19442, global = 0.178385, cumulative = 0.178385
smoothSolver:  Solving for epsilon, Initial residual = 0.234385, Final residual = 0.0169807, No Iterations 3
smoothSolver:  Solving for k, Initial residual = 1, Final residual = 0.0924783, No Iterations 4
bounding k, min: -0.936221 max: 25.0643 average: 0.665379
ExecutionTime = 0.215691 s  ClockTime = 0 s

Time = 2s

smoothSolver:  Solving for Ux, Initial residual = 0.653041, Final residual = 0.0549513, No Iterations 5
smoothSolver:  Solving for Uy, Initial residual = 0.389876, Final residual = 0.0312634, No Iterations 5
GAMG:  Solving for p, Initial residual = 0.0620389, Final residual = 0.00553954, No Iterations 15
time step continuity errors : sum local = 8.31651, global = 0.446204, cumulative = 0.624589
smoothSolver:  Solving for epsilon, Initial residual = 0.0859112, Final residual = 0.00570183, No Iterations 4
smoothSolver:  Solving for k, Initial residual = 0.419347, Final residual = 0.0266888, No Iterations 3
ExecutionTime = 0.238423 s  ClockTime = 0 s

Time = 3s

smoothSolver:  Solving for Ux, Initial residual = 0.240043, Final residual = 0.0216731, No Iterations 4
smoothSolver:  Solving for Uy, Initial residual = 0.257396, Final residual = 0.024159, No Iterations 4
GAMG:  Solving for p, Initial residual = 0.158527, Final residual = 0.0155168, No Iterations 6
time step continuity errors : sum local = 7.33671, global = 0.574695, cumulative = 1.19928
smoothSolver:  Solving for epsilon, Initial residual = 0.0653433, Final residual = 0.003612, No Iterations 2
smoothSolver:  Solving for k, Initial residual = 0.156375, Final residual = 0.0110144, No Iterations 2
ExecutionTime = 0.254761 s  ClockTime = 0 s

Time = 4s

smoothSolver:  Solving for Ux, Initial residual = 0.124635, Final residual = 0.00849683, No Iterations 4
smoothSolver:  Solving for Uy, Initial residual = 0.176469, Final residual = 0.012033, No Iterations 4
GAMG:  Solving for p, Initial residual = 0.159727, Final residual = 0.0143147, No Iterations 5
time step continuity errors : sum local = 3.26923, global = 0.20917, cumulative = 1.40845
smoothSolver:  Solving for epsilon, Initial residual = 0.0585198, Final residual = 0.00319185, No Iterations 2
smoothSolver:  Solving for k, Initial residual = 0.127633, Final residual = 0.012588, No Iterations 2
ExecutionTime = 0.270334 s  ClockTime = 0 s

Time = 5s

smoothSolver:  Solving for Ux, Initial residual = 0.0776612, Final residual = 0.00646941, No Iterations 4
smoothSolver:  Solving for Uy, Initial residual = 0.129335, Final residual = 0.0113177, No Iterations 4
GAMG:  Solving for p, Initial residual = 0.157046, Final residual = 0.0138165, No Iterations 4
time step continuity errors : sum local = 2.08776, global = -0.130497, cumulative = 1.27796
smoothSolver:  Solving for epsilon, Initial residual = 0.0588574, Final residual = 0.00322956, No Iterations 2
smoothSolver:  Solving for k, Initial residual = 0.122745, Final residual = 0.00699938, No Iterations 3
ExecutionTime = 0.285274 s  ClockTime = 0 s

Time = 6s

smoothSolver:  Solving for Ux, Initial residual = 0.058618, Final residual = 0.00367445, No Iterations 5
smoothSolver:  Solving for Uy, Initial residual = 0.094465, Final residual = 0.00620242, No Iterations 5
GAMG:  Solving for p, Initial residual = 0.130666, Final residual = 0.0121325, No Iterations 4
time step continuity errors : sum local = 1.59197, global = -0.165791, cumulative = 1.11217
smoothSolver:  Solving for epsilon, Initial residual = 0.0607816, Final residual = 0.00363322, No Iterations 2
smoothSolver:  Solving for k, Initial residual = 0.0828853, Final residual = 0.00589009, No Iterations 3
ExecutionTime = 0.30107 s  ClockTime = 0 s

Time = 7s

smoothSolver:  Solving for Ux, Initial residual = 0.048472, Final residual = 0.00349352, No Iterations 5
smoothSolver:  Solving for Uy, Initial residual = 0.0736032, Final residual = 0.00501984, No Iterations 5
GAMG:  Solving for p, Initial residual = 0.115693, Final residual = 0.0105185, No Iterations 4
time step continuity errors : sum local = 1.24904, global = -0.159298, cumulative = 0.952868
smoothSolver:  Solving for epsilon, Initial residual = 0.0576961, Final residual = 0.00363684, No Iterations 2
smoothSolver:  Solving for k, Initial residual = 0.06712, Final residual = 0.00530299, No Iterations 3
ExecutionTime = 0.316483 s  ClockTime = 0 s

Time = 8s

smoothSolver:  Solving for Ux, Initial residual = 0.0413833, Final residual = 0.00328788, No Iterations 5
smoothSolver:  Solving for Uy, Initial residual = 0.0680415, Final residual = 0.00448712, No Iterations 5
GAMG:  Solving for p, Initial residual = 0.108525, Final residual = 0.00811933, No Iterations 4
time step continuity errors : sum local = 0.911358, global = -0.100461, cumulative = 0.852408
smoothSolver:  Solving for epsilon, Initial residual = 0.0534143, Final residual = 0.00357303, No Iterations 2
smoothSolver:  Solving for k, Initial residual = 0.0580525, Final residual = 0.00491366, No Iterations 3
ExecutionTime = 0.332122 s  ClockTime = 0 s

Time = 9s

smoothSolver:  Solving for Ux, Initial residual = 0.0374357, Final residual = 0.0031062, No Iterations 5
smoothSolver:  Solving for Uy, Initial residual = 0.0624694, Final residual = 0.00423128, No Iterations 5
GAMG:  Solving for p, Initial residual = 0.105299, Final residual = 0.00840624, No Iterations 3
time step continuity errors : sum local = 0.913005, global = 0.08669, cumulative = 0.939098
smoothSolver:  Solving for epsilon, Initial residual = 0.0488692, Final residual = 0.00324913, No Iterations 2
smoothSolver:  Solving for k, Initial residual = 0.0530002, Final residual = 0.00476891, No Iterations 3
ExecutionTime = 0.347035 s  ClockTime = 0 s

Time = 10s

smoothSolver:  Solving for Ux, Initial residual = 0.0345241, Final residual = 0.00292771, No Iterations 5
smoothSolver:  Solving for Uy, Initial residual = 0.0565868, Final residual = 0.00407264, No Iterations 5
GAMG:  Solving for p, Initial residual = 0.1036, Final residual = 0.00745642, No Iterations 3
time step continuity errors : sum local = 0.771182, global = 0.0660616, cumulative = 1.00516
smoothSolver:  Solving for epsilon, Initial residual = 0.0445847, Final residual = 0.00324302, No Iterations 2
smoothSolver:  Solving for k, Initial residual = 0.0499255, Final residual = 0.00469732, No Iterations 3
ExecutionTime = 0.363779 s  ClockTime = 0 s

Time = 11s

smoothSolver:  Solving for Ux, Initial residual = 0.0318957, Final residual = 0.00275056, No Iterations 5
smoothSolver:  Solving for Uy, Initial residual = 0.0525925, Final residual = 0.00395896, No Iterations 5
GAMG:  Solving for p, Initial residual = 0.102809, Final residual = 0.00748397, No Iterations 3
time step continuity errors : sum local = 0.730699, global = 0.0717645, cumulative = 1.07692
smoothSolver:  Solving for epsilon, Initial residual = 0.0422214, Final residual = 0.00320627, No Iterations 2
smoothSolver:  Solving for k, Initial residual = 0.0479266, Final residual = 0.00473127, No Iterations 3
ExecutionTime = 0.378597 s  ClockTime = 0 s

Time = 12s

smoothSolver:  Solving for Ux, Initial residual = 0.0293424, Final residual = 0.00256389, No Iterations 5
smoothSolver:  Solving for Uy, Initial residual = 0.0505493, Final residual = 0.0038797, No Iterations 5
GAMG:  Solving for p, Initial residual = 0.0992183, Final residual = 0.00744143, No Iterations 3
time step continuity errors : sum local = 0.678683, global = 0.0723801, cumulative = 1.1493
smoothSolver:  Solving for epsilon, Initial residual = 0.0387494, Final residual = 0.00309404, No Iterations 2
smoothSolver:  Solving for k, Initial residual = 0.0461825, Final residual = 0.00272481, No Iterations 4
ExecutionTime = 0.394106 s  ClockTime = 0 s

Time = 13s

smoothSolver:  Solving for Ux, Initial residual = 0.0270455, Final residual = 0.00238734, No Iterations 5
smoothSolver:  Solving for Uy, Initial residual = 0.0492207, Final residual = 0.00378919, No Iterations 5
GAMG:  Solving for p, Initial residual = 0.0936484, Final residual = 0.00667209, No Iterations 3
time step continuity errors : sum local = 0.573233, global = 0.0543103, cumulative = 1.20361
smoothSolver:  Solving for epsilon, Initial residual = 0.0357709, Final residual = 0.00298799, No Iterations 2
smoothSolver:  Solving for k, Initial residual = 0.0451451, Final residual = 0.00281124, No Iterations 4
ExecutionTime = 0.40918 s  ClockTime = 0 s

Time = 14s

smoothSolver:  Solving for Ux, Initial residual = 0.0250327, Final residual = 0.00223207, No Iterations 5
smoothSolver:  Solving for Uy, Initial residual = 0.0475585, Final residual = 0.00372872, No Iterations 5
GAMG:  Solving for p, Initial residual = 0.0885472, Final residual = 0.00585827, No Iterations 3
time step continuity errors : sum local = 0.4782, global = 0.0390596, cumulative = 1.24267
smoothSolver:  Solving for epsilon, Initial residual = 0.0342232, Final residual = 0.00294423, No Iterations 2
smoothSolver:  Solving for k, Initial residual = 0.0440759, Final residual = 0.00288375, No Iterations 4
ExecutionTime = 0.424352 s  ClockTime = 0 s

Time = 15s

smoothSolver:  Solving for Ux, Initial residual = 0.0232359, Final residual = 0.00209215, No Iterations 5
smoothSolver:  Solving for Uy, Initial residual = 0.0456392, Final residual = 0.00371437, No Iterations 5
GAMG:  Solving for p, Initial residual = 0.0848509, Final residual = 0.00561908, No Iterations 3
time step continuity errors : sum local = 0.437417, global = 0.030929, cumulative = 1.2736
smoothSolver:  Solving for epsilon, Initial residual = 0.0324246, Final residual = 0.00291326, No Iterations 2
smoothSolver:  Solving for k, Initial residual = 0.0430867, Final residual = 0.00295303, No Iterations 4
ExecutionTime = 0.439456 s  ClockTime = 0 s

Time = 16s

smoothSolver:  Solving for Ux, Initial residual = 0.0216428, Final residual = 0.00196669, No Iterations 5
smoothSolver:  Solving for Uy, Initial residual = 0.0440538, Final residual = 0.00373132, No Iterations 5
GAMG:  Solving for p, Initial residual = 0.0806257, Final residual = 0.00531212, No Iterations 3
time step continuity errors : sum local = 0.399553, global = 0.0237531, cumulative = 1.29736
smoothSolver:  Solving for epsilon, Initial residual = 0.0310149, Final residual = 0.00287289, No Iterations 2
smoothSolver:  Solving for k, Initial residual = 0.0421789, Final residual = 0.00299028, No Iterations 4
ExecutionTime = 0.454406 s  ClockTime = 0 s

Time = 17s

smoothSolver:  Solving for Ux, Initial residual = 0.0202367, Final residual = 0.00185449, No Iterations 5
smoothSolver:  Solving for Uy, Initial residual = 0.0431752, Final residual = 0.00377906, No Iterations 5
GAMG:  Solving for p, Initial residual = 0.0762954, Final residual = 0.00567899, No Iterations 3
time step continuity errors : sum local = 0.408552, global = 0.00179325, cumulative = 1.29915
smoothSolver:  Solving for epsilon, Initial residual = 0.0301414, Final residual = 0.00293118, No Iterations 2
smoothSolver:  Solving for k, Initial residual = 0.041386, Final residual = 0.00300695, No Iterations 4
ExecutionTime = 0.469329 s  ClockTime = 0 s

Time = 18s

smoothSolver:  Solving for Ux, Initial residual = 0.0189902, Final residual = 0.00175127, No Iterations 5
smoothSolver:  Solving for Uy, Initial residual = 0.0426747, Final residual = 0.00384368, No Iterations 5
GAMG:  Solving for p, Initial residual = 0.0723989, Final residual = 0.00505632, No Iterations 3
time step continuity errors : sum local = 0.350815, global = 0.0018029, cumulative = 1.30095
smoothSolver:  Solving for epsilon, Initial residual = 0.0290152, Final residual = 0.00144196, No Iterations 3
smoothSolver:  Solving for k, Initial residual = 0.0404217, Final residual = 0.00299862, No Iterations 4
ExecutionTime = 0.486136 s  ClockTime = 0 s

Time = 19s

smoothSolver:  Solving for Ux, Initial residual = 0.0179168, Final residual = 0.00166298, No Iterations 5
smoothSolver:  Solving for Uy, Initial residual = 0.0422901, Final residual = 0.00390504, No Iterations 5
GAMG:  Solving for p, Initial residual = 0.0687777, Final residual = 0.00515851, No Iterations 3
time step continuity errors : sum local = 0.346956, global = -0.000566563, cumulative = 1.30039
smoothSolver:  Solving for epsilon, Initial residual = 0.0278919, Final residual = 0.00148118, No Iterations 3
smoothSolver:  Solving for k, Initial residual = 0.0393401, Final residual = 0.00295683, No Iterations 4
ExecutionTime = 0.5016 s  ClockTime = 0 s

Time = 20s

smoothSolver:  Solving for Ux, Initial residual = 0.0169679, Final residual = 0.00158596, No Iterations 5
smoothSolver:  Solving for Uy, Initial residual = 0.0419025, Final residual = 0.00395568, No Iterations 5
GAMG:  Solving for p, Initial residual = 0.0659548, Final residual = 0.00536247, No Iterations 3
time step continuity errors : sum local = 0.351844, global = -0.0163844, cumulative = 1.284
smoothSolver:  Solving for epsilon, Initial residual = 0.0269608, Final residual = 0.00152724, No Iterations 3
smoothSolver:  Solving for k, Initial residual = 0.0382059, Final residual = 0.0028925, No Iterations 4
ExecutionTime = 0.516961 s  ClockTime = 0 s

Time = 21s

smoothSolver:  Solving for Ux, Initial residual = 0.0161248, Final residual = 0.00151596, No Iterations 5
smoothSolver:  Solving for Uy, Initial residual = 0.0413846, Final residual = 0.00398647, No Iterations 5
GAMG:  Solving for p, Initial residual = 0.0634176, Final residual = 0.00516167, No Iterations 3
time step continuity errors : sum local = 0.32921, global = -0.0267766, cumulative = 1.25722
smoothSolver:  Solving for epsilon, Initial residual = 0.0260997, Final residual = 0.00155124, No Iterations 3
smoothSolver:  Solving for k, Initial residual = 0.0372877, Final residual = 0.00286354, No Iterations 4
ExecutionTime = 0.532413 s  ClockTime = 0 s

Time = 22s

smoothSolver:  Solving for Ux, Initial residual = 0.0153591, Final residual = 0.00145122, No Iterations 5
smoothSolver:  Solving for Uy, Initial residual = 0.0407498, Final residual = 0.00399585, No Iterations 5
GAMG:  Solving for p, Initial residual = 0.0613368, Final residual = 0.00494001, No Iterations 3
time step continuity errors : sum local = 0.307823, global = -0.0330037, cumulative = 1.22422
smoothSolver:  Solving for epsilon, Initial residual = 0.0253711, Final residual = 0.00159544, No Iterations 3
smoothSolver:  Solving for k, Initial residual = 0.035948, Final residual = 0.00279828, No Iterations 4
ExecutionTime = 0.547675 s  ClockTime = 0 s

Time = 23s

smoothSolver:  Solving for Ux, Initial residual = 0.0146473, Final residual = 0.00139087, No Iterations 5
smoothSolver:  Solving for Uy, Initial residual = 0.0400233, Final residual = 0.0039875, No Iterations 5
GAMG:  Solving for p, Initial residual = 0.0593231, Final residual = 0.00475249, No Iterations 3
time step continuity errors : sum local = 0.290191, global = -0.0349463, cumulative = 1.18927
smoothSolver:  Solving for epsilon, Initial residual = 0.0245689, Final residual = 0.00160003, No Iterations 3
smoothSolver:  Solving for k, Initial residual = 0.0348382, Final residual = 0.00272202, No Iterations 4
ExecutionTime = 0.562858 s  ClockTime = 0 s

Time = 24s

smoothSolver:  Solving for Ux, Initial residual = 0.0139792, Final residual = 0.00133439, No Iterations 5
smoothSolver:  Solving for Uy, Initial residual = 0.0391984, Final residual = 0.00254361, No Iterations 6
GAMG:  Solving for p, Initial residual = 0.0578297, Final residual = 0.00476193, No Iterations 3
time step continuity errors : sum local = 0.286116, global = -0.0362663, cumulative = 1.15301
smoothSolver:  Solving for epsilon, Initial residual = 0.023688, Final residual = 0.00160212, No Iterations 3
smoothSolver:  Solving for k, Initial residual = 0.0335416, Final residual = 0.00264478, No Iterations 4
ExecutionTime = 0.579251 s  ClockTime = 0 s

Time = 25s

smoothSolver:  Solving for Ux, Initial residual = 0.0133769, Final residual = 0.00128463, No Iterations 5
smoothSolver:  Solving for Uy, Initial residual = 0.0378656, Final residual = 0.00248883, No Iterations 6
GAMG:  Solving for p, Initial residual = 0.0555837, Final residual = 0.0047799, No Iterations 3
time step continuity errors : sum local = 0.283432, global = -0.0375622, cumulative = 1.11545
smoothSolver:  Solving for epsilon, Initial residual = 0.0231039, Final residual = 0.00160629, No Iterations 3
smoothSolver:  Solving for k, Initial residual = 0.032201, Final residual = 0.00255379, No Iterations 4
ExecutionTime = 0.596894 s  ClockTime = 0 s

Time = 26s

smoothSolver:  Solving for Ux, Initial residual = 0.0127814, Final residual = 0.00123374, No Iterations 5
smoothSolver:  Solving for Uy, Initial residual = 0.0366146, Final residual = 0.00243739, No Iterations 6
GAMG:  Solving for p, Initial residual = 0.0535812, Final residual = 0.00477198, No Iterations 3
time step continuity errors : sum local = 0.279617, global = -0.0387973, cumulative = 1.07665
smoothSolver:  Solving for epsilon, Initial residual = 0.0223735, Final residual = 0.00160445, No Iterations 3
smoothSolver:  Solving for k, Initial residual = 0.0306894, Final residual = 0.00245322, No Iterations 4
ExecutionTime = 0.612214 s  ClockTime = 0 s

Time = 27s

smoothSolver:  Solving for Ux, Initial residual = 0.0121932, Final residual = 0.0011824, No Iterations 5
smoothSolver:  Solving for Uy, Initial residual = 0.0354346, Final residual = 0.00238994, No Iterations 6
GAMG:  Solving for p, Initial residual = 0.0515028, Final residual = 0.00474221, No Iterations 3
time step continuity errors : sum local = 0.274925, global = -0.0396489, cumulative = 1.037
smoothSolver:  Solving for epsilon, Initial residual = 0.0217246, Final residual = 0.00159394, No Iterations 3
smoothSolver:  Solving for k, Initial residual = 0.0292041, Final residual = 0.00234306, No Iterations 4
ExecutionTime = 0.627986 s  ClockTime = 0 s

Time = 28s

smoothSolver:  Solving for Ux, Initial residual = 0.0116305, Final residual = 0.00113184, No Iterations 5
smoothSolver:  Solving for Uy, Initial residual = 0.034304, Final residual = 0.00234246, No Iterations 6
GAMG:  Solving for p, Initial residual = 0.0494757, Final residual = 0.00469125, No Iterations 3
time step continuity errors : sum local = 0.269594, global = -0.0401367, cumulative = 0.996863
smoothSolver:  Solving for epsilon, Initial residual = 0.0208992, Final residual = 0.00156992, No Iterations 3
smoothSolver:  Solving for k, Initial residual = 0.0278269, Final residual = 0.00224581, No Iterations 4
ExecutionTime = 0.643917 s  ClockTime = 0 s

Time = 29s

smoothSolver:  Solving for Ux, Initial residual = 0.0110908, Final residual = 0.00108267, No Iterations 5
smoothSolver:  Solving for Uy, Initial residual = 0.033203, Final residual = 0.0022935, No Iterations 6
GAMG:  Solving for p, Initial residual = 0.0475436, Final residual = 0.00465275, No Iterations 3
time step continuity errors : sum local = 0.264169, global = -0.0406598, cumulative = 0.956203
smoothSolver:  Solving for epsilon, Initial residual = 0.0202076, Final residual = 0.00153954, No Iterations 3
smoothSolver:  Solving for k, Initial residual = 0.026522, Final residual = 0.00214564, No Iterations 4
ExecutionTime = 0.659676 s  ClockTime = 0 s

Time = 30s

smoothSolver:  Solving for Ux, Initial residual = 0.010569, Final residual = 0.00103569, No Iterations 5
smoothSolver:  Solving for Uy, Initial residual = 0.0321293, Final residual = 0.00224114, No Iterations 6
GAMG:  Solving for p, Initial residual = 0.0454469, Final residual = 0.00319957, No Iterations 4
time step continuity errors : sum local = 0.17953, global = 0.0246168, cumulative = 0.98082
smoothSolver:  Solving for epsilon, Initial residual = 0.0194012, Final residual = 0.00151621, No Iterations 3
smoothSolver:  Solving for k, Initial residual = 0.025211, Final residual = 0.00205486, No Iterations 4
ExecutionTime = 0.67685 s  ClockTime = 0 s

Time = 31s

smoothSolver:  Solving for Ux, Initial residual = 0.0100806, Final residual = 0.000990647, No Iterations 5
smoothSolver:  Solving for Uy, Initial residual = 0.0311257, Final residual = 0.00218885, No Iterations 6
GAMG:  Solving for p, Initial residual = 0.0430313, Final residual = 0.00327049, No Iterations 4
time step continuity errors : sum local = 0.181352, global = 0.028942, cumulative = 1.00976
smoothSolver:  Solving for epsilon, Initial residual = 0.0186443, Final residual = 0.00147791, No Iterations 3
smoothSolver:  Solving for k, Initial residual = 0.023995, Final residual = 0.001964, No Iterations 4
ExecutionTime = 0.694308 s  ClockTime = 0 s

Time = 32s

smoothSolver:  Solving for Ux, Initial residual = 0.00960341, Final residual = 0.000949025, No Iterations 5
smoothSolver:  Solving for Uy, Initial residual = 0.0300325, Final residual = 0.00213005, No Iterations 6
GAMG:  Solving for p, Initial residual = 0.041325, Final residual = 0.00324415, No Iterations 4
time step continuity errors : sum local = 0.177679, global = 0.0280986, cumulative = 1.03786
smoothSolver:  Solving for epsilon, Initial residual = 0.0179216, Final residual = 0.00144668, No Iterations 3
smoothSolver:  Solving for k, Initial residual = 0.0229167, Final residual = 0.00188834, No Iterations 4
ExecutionTime = 0.711039 s  ClockTime = 0 s

Time = 33s

smoothSolver:  Solving for Ux, Initial residual = 0.00914718, Final residual = 0.000908555, No Iterations 5
smoothSolver:  Solving for Uy, Initial residual = 0.0289856, Final residual = 0.00207032, No Iterations 6
GAMG:  Solving for p, Initial residual = 0.039832, Final residual = 0.00321446, No Iterations 4
time step continuity errors : sum local = 0.173657, global = 0.0280654, cumulative = 1.06593
smoothSolver:  Solving for epsilon, Initial residual = 0.0172776, Final residual = 0.00141526, No Iterations 3
smoothSolver:  Solving for k, Initial residual = 0.0218819, Final residual = 0.00180038, No Iterations 4
ExecutionTime = 0.727843 s  ClockTime = 0 s

Time = 34s

smoothSolver:  Solving for Ux, Initial residual = 0.00871718, Final residual = 0.000870313, No Iterations 5
smoothSolver:  Solving for Uy, Initial residual = 0.0280045, Final residual = 0.00201333, No Iterations 6
GAMG:  Solving for p, Initial residual = 0.0380946, Final residual = 0.00318038, No Iterations 4
time step continuity errors : sum local = 0.16907, global = 0.0268993, cumulative = 1.09283
smoothSolver:  Solving for epsilon, Initial residual = 0.0165175, Final residual = 0.00137438, No Iterations 3
smoothSolver:  Solving for k, Initial residual = 0.0208902, Final residual = 0.00172018, No Iterations 4
ExecutionTime = 0.74426 s  ClockTime = 0 s

Time = 35s

smoothSolver:  Solving for Ux, Initial residual = 0.00830292, Final residual = 0.000532086, No Iterations 6
smoothSolver:  Solving for Uy, Initial residual = 0.0270861, Final residual = 0.00195848, No Iterations 6
GAMG:  Solving for p, Initial residual = 0.0374454, Final residual = 0.00304054, No Iterations 4
time step continuity errors : sum local = 0.158069, global = 0.0227736, cumulative = 1.1156
smoothSolver:  Solving for epsilon, Initial residual = 0.0159277, Final residual = 0.00133651, No Iterations 3
smoothSolver:  Solving for k, Initial residual = 0.0199317, Final residual = 0.00163278, No Iterations 4
ExecutionTime = 0.761647 s  ClockTime = 0 s

Time = 36s

smoothSolver:  Solving for Ux, Initial residual = 0.00787781, Final residual = 0.000507867, No Iterations 6
smoothSolver:  Solving for Uy, Initial residual = 0.0264686, Final residual = 0.00192447, No Iterations 6
GAMG:  Solving for p, Initial residual = 0.0362933, Final residual = 0.0030151, No Iterations 4
time step continuity errors : sum local = 0.153021, global = 0.022101, cumulative = 1.1377
smoothSolver:  Solving for epsilon, Initial residual = 0.0152176, Final residual = 0.00128794, No Iterations 3
smoothSolver:  Solving for k, Initial residual = 0.0190575, Final residual = 0.00155467, No Iterations 4
ExecutionTime = 0.778789 s  ClockTime = 0 s

Time = 37s

smoothSolver:  Solving for Ux, Initial residual = 0.00749834, Final residual = 0.000486762, No Iterations 6
smoothSolver:  Solving for Uy, Initial residual = 0.0257877, Final residual = 0.00188494, No Iterations 6
GAMG:  Solving for p, Initial residual = 0.0348053, Final residual = 0.00296114, No Iterations 4
time step continuity errors : sum local = 0.1471, global = 0.0213101, cumulative = 1.15901
smoothSolver:  Solving for epsilon, Initial residual = 0.0146074, Final residual = 0.00124048, No Iterations 3
smoothSolver:  Solving for k, Initial residual = 0.0182907, Final residual = 0.00148455, No Iterations 4
ExecutionTime = 0.795907 s  ClockTime = 0 s

Time = 38s

smoothSolver:  Solving for Ux, Initial residual = 0.00716526, Final residual = 0.000468353, No Iterations 6
smoothSolver:  Solving for Uy, Initial residual = 0.0250839, Final residual = 0.0018424, No Iterations 6
GAMG:  Solving for p, Initial residual = 0.0339938, Final residual = 0.00289991, No Iterations 4
time step continuity errors : sum local = 0.140775, global = 0.0205449, cumulative = 1.17956
smoothSolver:  Solving for epsilon, Initial residual = 0.01402, Final residual = 0.00119169, No Iterations 3
smoothSolver:  Solving for k, Initial residual = 0.0174476, Final residual = 0.00140122, No Iterations 4
ExecutionTime = 0.812736 s  ClockTime = 0 s

Time = 39s

smoothSolver:  Solving for Ux, Initial residual = 0.00687251, Final residual = 0.000452213, No Iterations 6
smoothSolver:  Solving for Uy, Initial residual = 0.0244335, Final residual = 0.00180132, No Iterations 6
GAMG:  Solving for p, Initial residual = 0.0333452, Final residual = 0.00285466, No Iterations 4
time step continuity errors : sum local = 0.135244, global = 0.020122, cumulative = 1.19968
smoothSolver:  Solving for epsilon, Initial residual = 0.0134422, Final residual = 0.00114287, No Iterations 3
smoothSolver:  Solving for k, Initial residual = 0.0167042, Final residual = 0.00132416, No Iterations 4
ExecutionTime = 0.829573 s  ClockTime = 0 s

Time = 40s

smoothSolver:  Solving for Ux, Initial residual = 0.00660678, Final residual = 0.000438088, No Iterations 6
smoothSolver:  Solving for Uy, Initial residual = 0.0238586, Final residual = 0.00176491, No Iterations 6
GAMG:  Solving for p, Initial residual = 0.0324504, Final residual = 0.00278987, No Iterations 4
time step continuity errors : sum local = 0.129728, global = 0.019574, cumulative = 1.21925
smoothSolver:  Solving for epsilon, Initial residual = 0.0128549, Final residual = 0.00108894, No Iterations 3
smoothSolver:  Solving for k, Initial residual = 0.0160083, Final residual = 0.00125796, No Iterations 4
ExecutionTime = 0.846091 s  ClockTime = 0 s

Time = 41s

smoothSolver:  Solving for Ux, Initial residual = 0.00637411, Final residual = 0.000425874, No Iterations 6
smoothSolver:  Solving for Uy, Initial residual = 0.0233753, Final residual = 0.00173469, No Iterations 6
GAMG:  Solving for p, Initial residual = 0.0317364, Final residual = 0.00271427, No Iterations 4
time step continuity errors : sum local = 0.123709, global = 0.0189011, cumulative = 1.23815
smoothSolver:  Solving for epsilon, Initial residual = 0.0123192, Final residual = 0.00103578, No Iterations 3
smoothSolver:  Solving for k, Initial residual = 0.0153521, Final residual = 0.00119165, No Iterations 4
ExecutionTime = 0.864007 s  ClockTime = 0 s

Time = 42s

smoothSolver:  Solving for Ux, Initial residual = 0.006177, Final residual = 0.000415255, No Iterations 6
smoothSolver:  Solving for Uy, Initial residual = 0.0229743, Final residual = 0.00170997, No Iterations 6
GAMG:  Solving for p, Initial residual = 0.0313573, Final residual = 0.00263822, No Iterations 4
time step continuity errors : sum local = 0.11779, global = 0.0181978, cumulative = 1.25635
smoothSolver:  Solving for epsilon, Initial residual = 0.0118823, Final residual = 0.000992102, No Iterations 3
smoothSolver:  Solving for k, Initial residual = 0.0147706, Final residual = 0.00113806, No Iterations 4
ExecutionTime = 0.880887 s  ClockTime = 0 s

Time = 43s

smoothSolver:  Solving for Ux, Initial residual = 0.00601113, Final residual = 0.000406162, No Iterations 6
smoothSolver:  Solving for Uy, Initial residual = 0.0226275, Final residual = 0.00168938, No Iterations 6
GAMG:  Solving for p, Initial residual = 0.0309103, Final residual = 0.00252463, No Iterations 4
time step continuity errors : sum local = 0.111074, global = 0.0176053, cumulative = 1.27396
smoothSolver:  Solving for epsilon, Initial residual = 0.0113758, Final residual = 0.000940062, No Iterations 3
smoothSolver:  Solving for k, Initial residual = 0.014238, Final residual = 0.00108873, No Iterations 4
ExecutionTime = 0.898111 s  ClockTime = 0 s

Time = 44s

smoothSolver:  Solving for Ux, Initial residual = 0.00587346, Final residual = 0.000398283, No Iterations 6
smoothSolver:  Solving for Uy, Initial residual = 0.0223426, Final residual = 0.00167348, No Iterations 6
GAMG:  Solving for p, Initial residual = 0.0302185, Final residual = 0.00258547, No Iterations 4
time step continuity errors : sum local = 0.11231, global = 0.0193147, cumulative = 1.29327
smoothSolver:  Solving for epsilon, Initial residual = 0.0109397, Final residual = 0.000893932, No Iterations 3
smoothSolver:  Solving for k, Initial residual = 0.0137238, Final residual = 0.00104357, No Iterations 4
ExecutionTime = 0.914884 s  ClockTime = 0 s

Time = 45s

smoothSolver:  Solving for Ux, Initial residual = 0.00575437, Final residual = 0.000391481, No Iterations 6
smoothSolver:  Solving for Uy, Initial residual = 0.0221154, Final residual = 0.00166097, No Iterations 6
GAMG:  Solving for p, Initial residual = 0.0296755, Final residual = 0.00250871, No Iterations 4
time step continuity errors : sum local = 0.107103, global = 0.0186249, cumulative = 1.31189
smoothSolver:  Solving for epsilon, Initial residual = 0.0105137, Final residual = 0.00084701, No Iterations 3
smoothSolver:  Solving for k, Initial residual = 0.0132645, Final residual = 0.00100776, No Iterations 4
ExecutionTime = 0.931641 s  ClockTime = 0 s

Time = 46s

smoothSolver:  Solving for Ux, Initial residual = 0.00565115, Final residual = 0.000385851, No Iterations 6
smoothSolver:  Solving for Uy, Initial residual = 0.0219227, Final residual = 0.00165089, No Iterations 6
GAMG:  Solving for p, Initial residual = 0.0290699, Final residual = 0.00242639, No Iterations 4
time step continuity errors : sum local = 0.102522, global = 0.0178491, cumulative = 1.32974
smoothSolver:  Solving for epsilon, Initial residual = 0.0101048, Final residual = 0.000801332, No Iterations 3
smoothSolver:  Solving for k, Initial residual = 0.0128254, Final residual = 0.000972312, No Iterations 4
ExecutionTime = 0.948552 s  ClockTime = 1 s

Time = 47s

smoothSolver:  Solving for Ux, Initial residual = 0.00556415, Final residual = 0.000381045, No Iterations 6
smoothSolver:  Solving for Uy, Initial residual = 0.0217683, Final residual = 0.00164362, No Iterations 6
GAMG:  Solving for p, Initial residual = 0.0283688, Final residual = 0.00220791, No Iterations 4
time step continuity errors : sum local = 0.0924607, global = 0.0149094, cumulative = 1.34465
smoothSolver:  Solving for epsilon, Initial residual = 0.00976596, Final residual = 0.000760582, No Iterations 3
smoothSolver:  Solving for k, Initial residual = 0.0124151, Final residual = 0.000938787, No Iterations 4
ExecutionTime = 0.966714 s  ClockTime = 1 s

Time = 48s

smoothSolver:  Solving for Ux, Initial residual = 0.00549136, Final residual = 0.000376869, No Iterations 6
smoothSolver:  Solving for Uy, Initial residual = 0.0216604, Final residual = 0.00163918, No Iterations 6
GAMG:  Solving for p, Initial residual = 0.0279438, Final residual = 0.00211879, No Iterations 4
time step continuity errors : sum local = 0.0878129, global = 0.013629, cumulative = 1.35828
smoothSolver:  Solving for epsilon, Initial residual = 0.00937168, Final residual = 0.000715267, No Iterations 3
smoothSolver:  Solving for k, Initial residual = 0.0120736, Final residual = 0.00091435, No Iterations 4
ExecutionTime = 0.983625 s  ClockTime = 1 s

Time = 49s

smoothSolver:  Solving for Ux, Initial residual = 0.00542483, Final residual = 0.00037321, No Iterations 6
smoothSolver:  Solving for Uy, Initial residual = 0.0215847, Final residual = 0.00163744, No Iterations 6
GAMG:  Solving for p, Initial residual = 0.027162, Final residual = 0.00203637, No Iterations 4
time step continuity errors : sum local = 0.0840163, global = 0.0125387, cumulative = 1.37082
smoothSolver:  Solving for epsilon, Initial residual = 0.00905778, Final residual = 0.000678016, No Iterations 3
smoothSolver:  Solving for k, Initial residual = 0.0117615, Final residual = 0.000893267, No Iterations 4
ExecutionTime = 1.00217 s  ClockTime = 1 s

Time = 50s

smoothSolver:  Solving for Ux, Initial residual = 0.00536651, Final residual = 0.000370068, No Iterations 6
smoothSolver:  Solving for Uy, Initial residual = 0.0215347, Final residual = 0.00163733, No Iterations 6
GAMG:  Solving for p, Initial residual = 0.0266078, Final residual = 0.00194731, No Iterations 4
time step continuity errors : sum local = 0.0799783, global = 0.0116684, cumulative = 1.38249
smoothSolver:  Solving for epsilon, Initial residual = 0.00878158, Final residual = 0.000644367, No Iterations 3
smoothSolver:  Solving for k, Initial residual = 0.0114453, Final residual = 0.000867542, No Iterations 4
ExecutionTime = 1.01878 s  ClockTime = 1 s

Time = 51s

smoothSolver:  Solving for Ux, Initial residual = 0.00531749, Final residual = 0.000367472, No Iterations 6
smoothSolver:  Solving for Uy, Initial residual = 0.0215169, Final residual = 0.00163811, No Iterations 6
GAMG:  Solving for p, Initial residual = 0.0262553, Final residual = 0.00187227, No Iterations 4
time step continuity errors : sum local = 0.0762152, global = 0.0109641, cumulative = 1.39345
smoothSolver:  Solving for epsilon, Initial residual = 0.00850874, Final residual = 0.000612975, No Iterations 3
smoothSolver:  Solving for k, Initial residual = 0.0111918, Final residual = 0.000851082, No Iterations 4
ExecutionTime = 1.03496 s  ClockTime = 1 s

Time = 52s

smoothSolver:  Solving for Ux, Initial residual = 0.00527473, Final residual = 0.000365409, No Iterations 6
smoothSolver:  Solving for Uy, Initial residual = 0.0215081, Final residual = 0.00163919, No Iterations 6
GAMG:  Solving for p, Initial residual = 0.0259732, Final residual = 0.00254339, No Iterations 3
time step continuity errors : sum local = 0.10322, global = -0.015759, cumulative = 1.37769
smoothSolver:  Solving for epsilon, Initial residual = 0.00829597, Final residual = 0.000590346, No Iterations 3
smoothSolver:  Solving for k, Initial residual = 0.0109375, Final residual = 0.00083373, No Iterations 4
ExecutionTime = 1.05067 s  ClockTime = 1 s

Time = 53s

smoothSolver:  Solving for Ux, Initial residual = 0.0052439, Final residual = 0.000363667, No Iterations 6
smoothSolver:  Solving for Uy, Initial residual = 0.0214711, Final residual = 0.00163759, No Iterations 6
GAMG:  Solving for p, Initial residual = 0.0259734, Final residual = 0.00254672, No Iterations 3
time step continuity errors : sum local = 0.103144, global = 0.0165438, cumulative = 1.39424
smoothSolver:  Solving for epsilon, Initial residual = 0.0080952, Final residual = 0.00057085, No Iterations 3
smoothSolver:  Solving for k, Initial residual = 0.0107312, Final residual = 0.000821204, No Iterations 4
ExecutionTime = 1.06683 s  ClockTime = 1 s

Time = 54s

smoothSolver:  Solving for Ux, Initial residual = 0.00521143, Final residual = 0.000361807, No Iterations 6
smoothSolver:  Solving for Uy, Initial residual = 0.0215062, Final residual = 0.00163958, No Iterations 6
GAMG:  Solving for p, Initial residual = 0.0260954, Final residual = 0.00189255, No Iterations 4
time step continuity errors : sum local = 0.0763691, global = 0.0106803, cumulative = 1.40492
smoothSolver:  Solving for epsilon, Initial residual = 0.00793149, Final residual = 0.000556258, No Iterations 3
smoothSolver:  Solving for k, Initial residual = 0.0104775, Final residual = 0.000798903, No Iterations 4
ExecutionTime = 1.08356 s  ClockTime = 1 s

Time = 55s

smoothSolver:  Solving for Ux, Initial residual = 0.00517983, Final residual = 0.000360237, No Iterations 6
smoothSolver:  Solving for Uy, Initial residual = 0.0215831, Final residual = 0.00164458, No Iterations 6
GAMG:  Solving for p, Initial residual = 0.0250621, Final residual = 0.00249606, No Iterations 3
time step continuity errors : sum local = 0.100963, global = -0.0142346, cumulative = 1.39068
smoothSolver:  Solving for epsilon, Initial residual = 0.00778599, Final residual = 0.000544773, No Iterations 3
smoothSolver:  Solving for k, Initial residual = 0.0102699, Final residual = 0.000786816, No Iterations 4
ExecutionTime = 1.09954 s  ClockTime = 1 s

Time = 56s

smoothSolver:  Solving for Ux, Initial residual = 0.00516436, Final residual = 0.000359515, No Iterations 6
smoothSolver:  Solving for Uy, Initial residual = 0.0215487, Final residual = 0.00164188, No Iterations 6
GAMG:  Solving for p, Initial residual = 0.024943, Final residual = 0.00242158, No Iterations 3
time step continuity errors : sum local = 0.0984183, global = 0.014922, cumulative = 1.40561
smoothSolver:  Solving for epsilon, Initial residual = 0.00765517, Final residual = 0.0005349, No Iterations 3
smoothSolver:  Solving for k, Initial residual = 0.0100644, Final residual = 0.00076836, No Iterations 4
ExecutionTime = 1.11585 s  ClockTime = 1 s

Time = 57s

smoothSolver:  Solving for Ux, Initial residual = 0.00514395, Final residual = 0.000358218, No Iterations 6
smoothSolver:  Solving for Uy, Initial residual = 0.0215639, Final residual = 0.00164034, No Iterations 6
GAMG:  Solving for p, Initial residual = 0.0252874, Final residual = 0.00170123, No Iterations 4
time step continuity errors : sum local = 0.0688387, global = 0.00849172, cumulative = 1.4141
smoothSolver:  Solving for epsilon, Initial residual = 0.00752141, Final residual = 0.000525151, No Iterations 3
smoothSolver:  Solving for k, Initial residual = 0.00990088, Final residual = 0.000756006, No Iterations 4
ExecutionTime = 1.13421 s  ClockTime = 1 s

Time = 58s

smoothSolver:  Solving for Ux, Initial residual = 0.00511629, Final residual = 0.00035643, No Iterations 6
smoothSolver:  Solving for Uy, Initial residual = 0.0216326, Final residual = 0.00164314, No Iterations 6
GAMG:  Solving for p, Initial residual = 0.0241755, Final residual = 0.00150548, No Iterations 4
time step continuity errors : sum local = 0.0612312, global = 0.00387387, cumulative = 1.41797
smoothSolver:  Solving for epsilon, Initial residual = 0.00744748, Final residual = 0.000519804, No Iterations 3
smoothSolver:  Solving for k, Initial residual = 0.00970026, Final residual = 0.000737923, No Iterations 4
ExecutionTime = 1.15056 s  ClockTime = 1 s

Time = 59s

smoothSolver:  Solving for Ux, Initial residual = 0.00509624, Final residual = 0.000355524, No Iterations 6
smoothSolver:  Solving for Uy, Initial residual = 0.0216558, Final residual = 0.00164336, No Iterations 6
GAMG:  Solving for p, Initial residual = 0.0239564, Final residual = 0.00226498, No Iterations 3
time step continuity errors : sum local = 0.0924032, global = 0.00945726, cumulative = 1.42743
smoothSolver:  Solving for epsilon, Initial residual = 0.00733669, Final residual = 0.000512414, No Iterations 3
smoothSolver:  Solving for k, Initial residual = 0.00956388, Final residual = 0.000728434, No Iterations 4
ExecutionTime = 1.16781 s  ClockTime = 1 s

Time = 60s

smoothSolver:  Solving for Ux, Initial residual = 0.00509543, Final residual = 0.000354684, No Iterations 6
smoothSolver:  Solving for Uy, Initial residual = 0.0216592, Final residual = 0.00164218, No Iterations 6
GAMG:  Solving for p, Initial residual = 0.0240347, Final residual = 0.00218823, No Iterations 3
time step continuity errors : sum local = 0.0891193, global = -0.011137, cumulative = 1.41629
smoothSolver:  Solving for epsilon, Initial residual = 0.0072769, Final residual = 0.000508795, No Iterations 3
smoothSolver:  Solving for k, Initial residual = 0.0094161, Final residual = 0.000714227, No Iterations 4
ExecutionTime = 1.18674 s  ClockTime = 1 s

Time = 61s

smoothSolver:  Solving for Ux, Initial residual = 0.00507745, Final residual = 0.000352743, No Iterations 6
smoothSolver:  Solving for Uy, Initial residual = 0.0216834, Final residual = 0.00164241, No Iterations 6
GAMG:  Solving for p, Initial residual = 0.0242123, Final residual = 0.00198589, No Iterations 4
time step continuity errors : sum local = 0.0811677, global = -0.0161104, cumulative = 1.40018
smoothSolver:  Solving for epsilon, Initial residual = 0.00719377, Final residual = 0.000503008, No Iterations 3
smoothSolver:  Solving for k, Initial residual = 0.00928328, Final residual = 0.000703519, No Iterations 4
ExecutionTime = 1.20632 s  ClockTime = 1 s

Time = 62s

smoothSolver:  Solving for Ux, Initial residual = 0.00504848, Final residual = 0.000350192, No Iterations 6
smoothSolver:  Solving for Uy, Initial residual = 0.0217361, Final residual = 0.00164549, No Iterations 6
GAMG:  Solving for p, Initial residual = 0.0240289, Final residual = 0.00208255, No Iterations 4
time step continuity errors : sum local = 0.0850775, global = -0.0165891, cumulative = 1.38359
smoothSolver:  Solving for epsilon, Initial residual = 0.00711625, Final residual = 0.000499077, No Iterations 3
smoothSolver:  Solving for k, Initial residual = 0.00915365, Final residual = 0.000689846, No Iterations 4
ExecutionTime = 1.22426 s  ClockTime = 1 s

Time = 63s

smoothSolver:  Solving for Ux, Initial residual = 0.00502875, Final residual = 0.000348476, No Iterations 6
smoothSolver:  Solving for Uy, Initial residual = 0.021769, Final residual = 0.00164629, No Iterations 6
GAMG:  Solving for p, Initial residual = 0.0242705, Final residual = 0.00212836, No Iterations 4
time step continuity errors : sum local = 0.0870321, global = -0.0166547, cumulative = 1.36694
smoothSolver:  Solving for epsilon, Initial residual = 0.00704166, Final residual = 0.00049338, No Iterations 3
smoothSolver:  Solving for k, Initial residual = 0.00898779, Final residual = 0.000675812, No Iterations 4
ExecutionTime = 1.24256 s  ClockTime = 1 s

Time = 64s

smoothSolver:  Solving for Ux, Initial residual = 0.00500858, Final residual = 0.00034646, No Iterations 6
smoothSolver:  Solving for Uy, Initial residual = 0.0217948, Final residual = 0.00164679, No Iterations 6
GAMG:  Solving for p, Initial residual = 0.0240727, Final residual = 0.00212927, No Iterations 4
time step continuity errors : sum local = 0.0874108, global = -0.0162031, cumulative = 1.35073
smoothSolver:  Solving for epsilon, Initial residual = 0.00693688, Final residual = 0.000489174, No Iterations 3
smoothSolver:  Solving for k, Initial residual = 0.00890703, Final residual = 0.000668196, No Iterations 4
ExecutionTime = 1.26019 s  ClockTime = 1 s

Time = 65s

smoothSolver:  Solving for Ux, Initial residual = 0.00498478, Final residual = 0.000344107, No Iterations 6
smoothSolver:  Solving for Uy, Initial residual = 0.0218252, Final residual = 0.00164832, No Iterations 6
GAMG:  Solving for p, Initial residual = 0.0240746, Final residual = 0.00211786, No Iterations 4
time step continuity errors : sum local = 0.0871254, global = -0.0157094, cumulative = 1.33503
smoothSolver:  Solving for epsilon, Initial residual = 0.00685465, Final residual = 0.000484272, No Iterations 3
smoothSolver:  Solving for k, Initial residual = 0.00881508, Final residual = 0.000660155, No Iterations 4
ExecutionTime = 1.27954 s  ClockTime = 1 s

Time = 66s

smoothSolver:  Solving for Ux, Initial residual = 0.00495948, Final residual = 0.000341475, No Iterations 6
smoothSolver:  Solving for Uy, Initial residual = 0.0218737, Final residual = 0.00165047, No Iterations 6
GAMG:  Solving for p, Initial residual = 0.0242817, Final residual = 0.00211032, No Iterations 4
time step continuity errors : sum local = 0.0866444, global = -0.0152703, cumulative = 1.31976
smoothSolver:  Solving for epsilon, Initial residual = 0.00675968, Final residual = 0.000478745, No Iterations 3
smoothSolver:  Solving for k, Initial residual = 0.00870289, Final residual = 0.00064846, No Iterations 4
ExecutionTime = 1.29717 s  ClockTime = 1 s

Time = 67s

smoothSolver:  Solving for Ux, Initial residual = 0.00493074, Final residual = 0.000338735, No Iterations 6
smoothSolver:  Solving for Uy, Initial residual = 0.0219164, Final residual = 0.00165332, No Iterations 6
GAMG:  Solving for p, Initial residual = 0.0241395, Final residual = 0.00209778, No Iterations 4
time step continuity errors : sum local = 0.0863967, global = -0.0149874, cumulative = 1.30477
smoothSolver:  Solving for epsilon, Initial residual = 0.00669855, Final residual = 0.000475685, No Iterations 3
smoothSolver:  Solving for k, Initial residual = 0.00865094, Final residual = 0.000644738, No Iterations 4
ExecutionTime = 1.31588 s  ClockTime = 1 s

Time = 68s

smoothSolver:  Solving for Ux, Initial residual = 0.00490258, Final residual = 0.000335916, No Iterations 6
smoothSolver:  Solving for Uy, Initial residual = 0.0219603, Final residual = 0.00165638, No Iterations 6
GAMG:  Solving for p, Initial residual = 0.024244, Final residual = 0.00209286, No Iterations 4
time step continuity errors : sum local = 0.0863455, global = -0.0148284, cumulative = 1.28994
smoothSolver:  Solving for epsilon, Initial residual = 0.0066173, Final residual = 0.000470752, No Iterations 3
smoothSolver:  Solving for k, Initial residual = 0.00855336, Final residual = 0.000633085, No Iterations 4
ExecutionTime = 1.33359 s  ClockTime = 1 s

Time = 69s

smoothSolver:  Solving for Ux, Initial residual = 0.00487482, Final residual = 0.000333075, No Iterations 6
smoothSolver:  Solving for Uy, Initial residual = 0.022028, Final residual = 0.00166014, No Iterations 6
GAMG:  Solving for p, Initial residual = 0.0244938, Final residual = 0.00209524, No Iterations 4
time step continuity errors : sum local = 0.0862027, global = -0.0147185, cumulative = 1.27522
smoothSolver:  Solving for epsilon, Initial residual = 0.00654441, Final residual = 0.000465815, No Iterations 3
smoothSolver:  Solving for k, Initial residual = 0.00851602, Final residual = 0.000631119, No Iterations 4
ExecutionTime = 1.35093 s  ClockTime = 1 s

Time = 70s

smoothSolver:  Solving for Ux, Initial residual = 0.00484423, Final residual = 0.000330213, No Iterations 6
smoothSolver:  Solving for Uy, Initial residual = 0.0220947, Final residual = 0.00166493, No Iterations 6
GAMG:  Solving for p, Initial residual = 0.0244096, Final residual = 0.00208355, No Iterations 4
time step continuity errors : sum local = 0.0862053, global = -0.0147368, cumulative = 1.26048
smoothSolver:  Solving for epsilon, Initial residual = 0.00648824, Final residual = 0.00046322, No Iterations 3
smoothSolver:  Solving for k, Initial residual = 0.00848019, Final residual = 0.000625767, No Iterations 4
ExecutionTime = 1.36825 s  ClockTime = 1 s

Time = 71s

smoothSolver:  Solving for Ux, Initial residual = 0.00481353, Final residual = 0.000327365, No Iterations 6
smoothSolver:  Solving for Uy, Initial residual = 0.0221755, Final residual = 0.00167065, No Iterations 6
GAMG:  Solving for p, Initial residual = 0.0245917, Final residual = 0.00207381, No Iterations 4
time step continuity errors : sum local = 0.0859296, global = -0.0148134, cumulative = 1.24567
smoothSolver:  Solving for epsilon, Initial residual = 0.00642184, Final residual = 0.000458171, No Iterations 3
smoothSolver:  Solving for k, Initial residual = 0.00841392, Final residual = 0.00061871, No Iterations 4
ExecutionTime = 1.38512 s  ClockTime = 1 s

Time = 72s

smoothSolver:  Solving for Ux, Initial residual = 0.00478272, Final residual = 0.000324554, No Iterations 6
smoothSolver:  Solving for Uy, Initial residual = 0.0222746, Final residual = 0.00167672, No Iterations 6
GAMG:  Solving for p, Initial residual = 0.0247253, Final residual = 0.00207978, No Iterations 4
time step continuity errors : sum local = 0.0860653, global = -0.014973, cumulative = 1.2307
smoothSolver:  Solving for epsilon, Initial residual = 0.00636834, Final residual = 0.000455066, No Iterations 3
smoothSolver:  Solving for k, Initial residual = 0.00838682, Final residual = 0.000612185, No Iterations 4
ExecutionTime = 1.40226 s  ClockTime = 1 s

Time = 73s

smoothSolver:  Solving for Ux, Initial residual = 0.00475212, Final residual = 0.000321815, No Iterations 6
smoothSolver:  Solving for Uy, Initial residual = 0.0223745, Final residual = 0.00168364, No Iterations 6
GAMG:  Solving for p, Initial residual = 0.0246465, Final residual = 0.00208057, No Iterations 4
time step continuity errors : sum local = 0.0865384, global = -0.015305, cumulative = 1.21539
smoothSolver:  Solving for epsilon, Initial residual = 0.00630517, Final residual = 0.000451636, No Iterations 3
smoothSolver:  Solving for k, Initial residual = 0.00834861, Final residual = 0.000607418, No Iterations 4
ExecutionTime = 1.41874 s  ClockTime = 1 s

Time = 74s

smoothSolver:  Solving for Ux, Initial residual = 0.00472067, Final residual = 0.000319141, No Iterations 6
smoothSolver:  Solving for Uy, Initial residual = 0.0224849, Final residual = 0.00169151, No Iterations 6
GAMG:  Solving for p, Initial residual = 0.0247172, Final residual = 0.00209606, No Iterations 4
time step continuity errors : sum local = 0.0874132, global = -0.0157112, cumulative = 1.19968
smoothSolver:  Solving for epsilon, Initial residual = 0.00625064, Final residual = 0.000447944, No Iterations 3
smoothSolver:  Solving for k, Initial residual = 0.00833441, Final residual = 0.000605473, No Iterations 4
ExecutionTime = 1.43562 s  ClockTime = 1 s

Time = 75s

smoothSolver:  Solving for Ux, Initial residual = 0.00469007, Final residual = 0.000316535, No Iterations 6
smoothSolver:  Solving for Uy, Initial residual = 0.0226108, Final residual = 0.00169994, No Iterations 6
GAMG:  Solving for p, Initial residual = 0.0248436, Final residual = 0.00212832, No Iterations 4
time step continuity errors : sum local = 0.0886207, global = -0.0161218, cumulative = 1.18356
smoothSolver:  Solving for epsilon, Initial residual = 0.00619553, Final residual = 0.0004447, No Iterations 3
smoothSolver:  Solving for k, Initial residual = 0.00829943, Final residual = 0.000601826, No Iterations 4
ExecutionTime = 1.45234 s  ClockTime = 1 s

Time = 76s

smoothSolver:  Solving for Ux, Initial residual = 0.00465997, Final residual = 0.000314014, No Iterations 6
smoothSolver:  Solving for Uy, Initial residual = 0.0227416, Final residual = 0.00170933, No Iterations 6
GAMG:  Solving for p, Initial residual = 0.0248014, Final residual = 0.0021561, No Iterations 4
time step continuity errors : sum local = 0.090336, global = -0.0167177, cumulative = 1.16684
smoothSolver:  Solving for epsilon, Initial residual = 0.00615152, Final residual = 0.000442047, No Iterations 3
smoothSolver:  Solving for k, Initial residual = 0.00831274, Final residual = 0.000599939, No Iterations 4
ExecutionTime = 1.47036 s  ClockTime = 1 s

Time = 77s

smoothSolver:  Solving for Ux, Initial residual = 0.00463048, Final residual = 0.000311591, No Iterations 6
smoothSolver:  Solving for Uy, Initial residual = 0.0228856, Final residual = 0.00171955, No Iterations 6
GAMG:  Solving for p, Initial residual = 0.0249262, Final residual = 0.00221104, No Iterations 4
time step continuity errors : sum local = 0.0926986, global = -0.017378, cumulative = 1.14946
smoothSolver:  Solving for epsilon, Initial residual = 0.00607997, Final residual = 0.000437615, No Iterations 3
smoothSolver:  Solving for k, Initial residual = 0.00828185, Final residual = 0.000595487, No Iterations 4
ExecutionTime = 1.48663 s  ClockTime = 1 s

Time = 78s

smoothSolver:  Solving for Ux, Initial residual = 0.00460061, Final residual = 0.000309321, No Iterations 6
smoothSolver:  Solving for Uy, Initial residual = 0.023049, Final residual = 0.00173019, No Iterations 6
GAMG:  Solving for p, Initial residual = 0.0252158, Final residual = 0.0022775, No Iterations 4
time step continuity errors : sum local = 0.0953625, global = -0.018186, cumulative = 1.13128
smoothSolver:  Solving for epsilon, Initial residual = 0.00604512, Final residual = 0.000436146, No Iterations 3
smoothSolver:  Solving for k, Initial residual = 0.00831741, Final residual = 0.00059721, No Iterations 4
ExecutionTime = 1.50296 s  ClockTime = 1 s

Time = 79s

smoothSolver:  Solving for Ux, Initial residual = 0.00457348, Final residual = 0.000307183, No Iterations 6
smoothSolver:  Solving for Uy, Initial residual = 0.0232143, Final residual = 0.00174166, No Iterations 6
GAMG:  Solving for p, Initial residual = 0.0252916, Final residual = 0.0023317, No Iterations 4
time step continuity errors : sum local = 0.0982083, global = -0.0189446, cumulative = 1.11233
smoothSolver:  Solving for epsilon, Initial residual = 0.00599719, Final residual = 0.000433121, No Iterations 3
smoothSolver:  Solving for k, Initial residual = 0.00830858, Final residual = 0.000593941, No Iterations 4
ExecutionTime = 1.52018 s  ClockTime = 1 s

Time = 80s

smoothSolver:  Solving for Ux, Initial residual = 0.00454849, Final residual = 0.000305159, No Iterations 6
smoothSolver:  Solving for Uy, Initial residual = 0.0233987, Final residual = 0.00175402, No Iterations 6
GAMG:  Solving for p, Initial residual = 0.025508, Final residual = 0.00239268, No Iterations 4
time step continuity errors : sum local = 0.100816, global = -0.0195549, cumulative = 1.09278
smoothSolver:  Solving for epsilon, Initial residual = 0.005958, Final residual = 0.000431353, No Iterations 3
smoothSolver:  Solving for k, Initial residual = 0.00829199, Final residual = 0.000591578, No Iterations 4
ExecutionTime = 1.53765 s  ClockTime = 1 s

Time = 81s

smoothSolver:  Solving for Ux, Initial residual = 0.00452542, Final residual = 0.000303239, No Iterations 6
smoothSolver:  Solving for Uy, Initial residual = 0.0236031, Final residual = 0.00176739, No Iterations 6
GAMG:  Solving for p, Initial residual = 0.0258073, Final residual = 0.00244145, No Iterations 4
time step continuity errors : sum local = 0.102956, global = -0.0199781, cumulative = 1.0728
smoothSolver:  Solving for epsilon, Initial residual = 0.00592652, Final residual = 0.000428834, No Iterations 3
smoothSolver:  Solving for k, Initial residual = 0.00828187, Final residual = 0.000589913, No Iterations 4
ExecutionTime = 1.55512 s  ClockTime = 1 s

Time = 82s

smoothSolver:  Solving for Ux, Initial residual = 0.00450374, Final residual = 0.00030148, No Iterations 6
smoothSolver:  Solving for Uy, Initial residual = 0.0238145, Final residual = 0.00178201, No Iterations 6
GAMG:  Solving for p, Initial residual = 0.0259379, Final residual = 0.00246974, No Iterations 4
time step continuity errors : sum local = 0.104623, global = -0.0202852, cumulative = 1.05251
smoothSolver:  Solving for epsilon, Initial residual = 0.00590601, Final residual = 0.000429147, No Iterations 3
smoothSolver:  Solving for k, Initial residual = 0.00829507, Final residual = 0.000588432, No Iterations 4
ExecutionTime = 1.57088 s  ClockTime = 1 s

Time = 83s

smoothSolver:  Solving for Ux, Initial residual = 0.00448197, Final residual = 0.000299846, No Iterations 6
smoothSolver:  Solving for Uy, Initial residual = 0.0240402, Final residual = 0.00179754, No Iterations 6
GAMG:  Solving for p, Initial residual = 0.0260643, Final residual = 0.00258574, No Iterations 4
time step continuity errors : sum local = 0.109641, global = -0.0215502, cumulative = 1.03096
smoothSolver:  Solving for epsilon, Initial residual = 0.00587045, Final residual = 0.000426686, No Iterations 3
smoothSolver:  Solving for k, Initial residual = 0.00832132, Final residual = 0.000590917, No Iterations 4
ExecutionTime = 1.58732 s  ClockTime = 1 s

Time = 84s

smoothSolver:  Solving for Ux, Initial residual = 0.00446377, Final residual = 0.000298407, No Iterations 6
smoothSolver:  Solving for Uy, Initial residual = 0.0242898, Final residual = 0.0018144, No Iterations 6
GAMG:  Solving for p, Initial residual = 0.0265916, Final residual = 0.00201932, No Iterations 5
time step continuity errors : sum local = 0.0855236, global = 0.0165765, cumulative = 1.04754
smoothSolver:  Solving for epsilon, Initial residual = 0.00584458, Final residual = 0.000425863, No Iterations 3
smoothSolver:  Solving for k, Initial residual = 0.00828205, Final residual = 0.000585275, No Iterations 4
ExecutionTime = 1.60417 s  ClockTime = 1 s

Time = 85s

smoothSolver:  Solving for Ux, Initial residual = 0.00444754, Final residual = 0.000296611, No Iterations 6
smoothSolver:  Solving for Uy, Initial residual = 0.0246111, Final residual = 0.00183575, No Iterations 6
GAMG:  Solving for p, Initial residual = 0.0263929, Final residual = 0.0019377, No Iterations 3
time step continuity errors : sum local = 0.0821573, global = 0.00959587, cumulative = 1.05714
smoothSolver:  Solving for epsilon, Initial residual = 0.00580837, Final residual = 0.000424179, No Iterations 3
smoothSolver:  Solving for k, Initial residual = 0.00834644, Final residual = 0.000590364, No Iterations 4
ExecutionTime = 1.61953 s  ClockTime = 1 s

Time = 86s

smoothSolver:  Solving for Ux, Initial residual = 0.00443465, Final residual = 0.000295872, No Iterations 6
smoothSolver:  Solving for Uy, Initial residual = 0.024886, Final residual = 0.00185602, No Iterations 6
GAMG:  Solving for p, Initial residual = 0.02674, Final residual = 0.00220388, No Iterations 3
time step continuity errors : sum local = 0.0933789, global = 0.0115587, cumulative = 1.0687
smoothSolver:  Solving for epsilon, Initial residual = 0.00578264, Final residual = 0.000423633, No Iterations 3
smoothSolver:  Solving for k, Initial residual = 0.00833613, Final residual = 0.000588383, No Iterations 4
ExecutionTime = 1.63511 s  ClockTime = 1 s

Time = 87s

smoothSolver:  Solving for Ux, Initial residual = 0.00442051, Final residual = 0.000295119, No Iterations 6
smoothSolver:  Solving for Uy, Initial residual = 0.0252265, Final residual = 0.00187771, No Iterations 6
GAMG:  Solving for p, Initial residual = 0.0269396, Final residual = 0.0013534, No Iterations 4
time step continuity errors : sum local = 0.0575771, global = -0.00686832, cumulative = 1.06183
smoothSolver:  Solving for epsilon, Initial residual = 0.00576389, Final residual = 0.000422711, No Iterations 3
smoothSolver:  Solving for k, Initial residual = 0.00838008, Final residual = 0.000590739, No Iterations 4
ExecutionTime = 1.65283 s  ClockTime = 1 s

Time = 88s

smoothSolver:  Solving for Ux, Initial residual = 0.00441079, Final residual = 0.000294101, No Iterations 6
smoothSolver:  Solving for Uy, Initial residual = 0.0255703, Final residual = 0.00190212, No Iterations 6
GAMG:  Solving for p, Initial residual = 0.0268377, Final residual = 0.00235719, No Iterations 3
time step continuity errors : sum local = 0.10059, global = 0.0118718, cumulative = 1.0737
smoothSolver:  Solving for epsilon, Initial residual = 0.005735, Final residual = 0.00042193, No Iterations 3
smoothSolver:  Solving for k, Initial residual = 0.00838155, Final residual = 0.000591117, No Iterations 4
ExecutionTime = 1.66823 s  ClockTime = 1 s

Time = 89s

smoothSolver:  Solving for Ux, Initial residual = 0.00440716, Final residual = 0.000294683, No Iterations 6
smoothSolver:  Solving for Uy, Initial residual = 0.0257758, Final residual = 0.00191946, No Iterations 6
GAMG:  Solving for p, Initial residual = 0.0278858, Final residual = 0.00196033, No Iterations 4
time step continuity errors : sum local = 0.0837765, global = 0.00555823, cumulative = 1.07926
smoothSolver:  Solving for epsilon, Initial residual = 0.00570493, Final residual = 0.000420838, No Iterations 3
smoothSolver:  Solving for k, Initial residual = 0.00840499, Final residual = 0.000591039, No Iterations 4
ExecutionTime = 1.68538 s  ClockTime = 1 s

Time = 90s

smoothSolver:  Solving for Ux, Initial residual = 0.00440333, Final residual = 0.000292887, No Iterations 6
smoothSolver:  Solving for Uy, Initial residual = 0.0262288, Final residual = 0.00194717, No Iterations 6
GAMG:  Solving for p, Initial residual = 0.0277454, Final residual = 0.00271793, No Iterations 3
time step continuity errors : sum local = 0.116181, global = 0.00973688, cumulative = 1.08899
smoothSolver:  Solving for epsilon, Initial residual = 0.00568045, Final residual = 0.000419855, No Iterations 3
smoothSolver:  Solving for k, Initial residual = 0.00843159, Final residual = 0.00059324, No Iterations 4
ExecutionTime = 1.70105 s  ClockTime = 1 s

Time = 91s

smoothSolver:  Solving for Ux, Initial residual = 0.00439765, Final residual = 0.000293031, No Iterations 6
smoothSolver:  Solving for Uy, Initial residual = 0.0265487, Final residual = 0.00197066, No Iterations 6
GAMG:  Solving for p, Initial residual = 0.0284174, Final residual = 0.00274973, No Iterations 4
time step continuity errors : sum local = 0.117566, global = -0.0116026, cumulative = 1.07739
smoothSolver:  Solving for epsilon, Initial residual = 0.00566092, Final residual = 0.00041894, No Iterations 3
smoothSolver:  Solving for k, Initial residual = 0.00844295, Final residual = 0.00059297, No Iterations 4
ExecutionTime = 1.71695 s  ClockTime = 1 s

Time = 92s

smoothSolver:  Solving for Ux, Initial residual = 0.00439746, Final residual = 0.000292562, No Iterations 6
smoothSolver:  Solving for Uy, Initial residual = 0.0269455, Final residual = 0.00199845, No Iterations 6
GAMG:  Solving for p, Initial residual = 0.0286461, Final residual = 0.00259132, No Iterations 4
time step continuity errors : sum local = 0.111469, global = -0.0188406, cumulative = 1.05855
smoothSolver:  Solving for epsilon, Initial residual = 0.0056404, Final residual = 0.000417704, No Iterations 3
smoothSolver:  Solving for k, Initial residual = 0.00845237, Final residual = 0.000593855, No Iterations 4
ExecutionTime = 1.73321 s  ClockTime = 1 s

Time = 93s

smoothSolver:  Solving for Ux, Initial residual = 0.00438256, Final residual = 0.000292378, No Iterations 6
smoothSolver:  Solving for Uy, Initial residual = 0.0273167, Final residual = 0.00202515, No Iterations 6
GAMG:  Solving for p, Initial residual = 0.0289426, Final residual = 0.00234341, No Iterations 5
time step continuity errors : sum local = 0.100809, global = 0.0156368, cumulative = 1.07419
smoothSolver:  Solving for epsilon, Initial residual = 0.00562153, Final residual = 0.000416861, No Iterations 3
smoothSolver:  Solving for k, Initial residual = 0.00847619, Final residual = 0.000594599, No Iterations 4
ExecutionTime = 1.74985 s  ClockTime = 1 s

Time = 94s

smoothSolver:  Solving for Ux, Initial residual = 0.00438379, Final residual = 0.000291983, No Iterations 6
smoothSolver:  Solving for Uy, Initial residual = 0.0277285, Final residual = 0.00205196, No Iterations 6
GAMG:  Solving for p, Initial residual = 0.0289969, Final residual = 0.00269186, No Iterations 3
time step continuity errors : sum local = 0.115213, global = 0.0202638, cumulative = 1.09445
smoothSolver:  Solving for epsilon, Initial residual = 0.00560201, Final residual = 0.000415835, No Iterations 3
smoothSolver:  Solving for k, Initial residual = 0.00846581, Final residual = 0.000593629, No Iterations 4
ExecutionTime = 1.76542 s  ClockTime = 1 s

Time = 95s

smoothSolver:  Solving for Ux, Initial residual = 0.00438445, Final residual = 0.000292399, No Iterations 6
smoothSolver:  Solving for Uy, Initial residual = 0.0280929, Final residual = 0.00207875, No Iterations 6
GAMG:  Solving for p, Initial residual = 0.029592, Final residual = 0.00195947, No Iterations 4
time step continuity errors : sum local = 0.0838409, global = 0.0112327, cumulative = 1.10568
smoothSolver:  Solving for epsilon, Initial residual = 0.00558118, Final residual = 0.000414788, No Iterations 3
smoothSolver:  Solving for k, Initial residual = 0.00850282, Final residual = 0.000595805, No Iterations 4
ExecutionTime = 1.78331 s  ClockTime = 1 s

Time = 96s

smoothSolver:  Solving for Ux, Initial residual = 0.00437418, Final residual = 0.000292011, No Iterations 6
smoothSolver:  Solving for Uy, Initial residual = 0.028624, Final residual = 0.00211622, No Iterations 6
GAMG:  Solving for p, Initial residual = 0.0292855, Final residual = 0.00200813, No Iterations 4
time step continuity errors : sum local = 0.085649, global = 0.0110101, cumulative = 1.11669
smoothSolver:  Solving for epsilon, Initial residual = 0.00557239, Final residual = 0.000415031, No Iterations 3
smoothSolver:  Solving for k, Initial residual = 0.00852165, Final residual = 0.000596399, No Iterations 4
ExecutionTime = 1.79929 s  ClockTime = 1 s

Time = 97s

smoothSolver:  Solving for Ux, Initial residual = 0.00437596, Final residual = 0.000292453, No Iterations 6
smoothSolver:  Solving for Uy, Initial residual = 0.0290148, Final residual = 0.00214416, No Iterations 6
GAMG:  Solving for p, Initial residual = 0.0298691, Final residual = 0.00211951, No Iterations 4
time step continuity errors : sum local = 0.0905353, global = 0.0112953, cumulative = 1.12799
smoothSolver:  Solving for epsilon, Initial residual = 0.00555508, Final residual = 0.000415268, No Iterations 3
smoothSolver:  Solving for k, Initial residual = 0.00856478, Final residual = 0.000598431, No Iterations 4
ExecutionTime = 1.81543 s  ClockTime = 1 s

Time = 98s

smoothSolver:  Solving for Ux, Initial residual = 0.00437806, Final residual = 0.000292486, No Iterations 6
smoothSolver:  Solving for Uy, Initial residual = 0.0294336, Final residual = 0.0021727, No Iterations 6
GAMG:  Solving for p, Initial residual = 0.0300563, Final residual = 0.00215869, No Iterations 4
time step continuity errors : sum local = 0.092084, global = 0.0117263, cumulative = 1.13972
smoothSolver:  Solving for epsilon, Initial residual = 0.00550842, Final residual = 0.000411466, No Iterations 3
smoothSolver:  Solving for k, Initial residual = 0.00857548, Final residual = 0.000598364, No Iterations 4
ExecutionTime = 1.83158 s  ClockTime = 1 s

Time = 99s

smoothSolver:  Solving for Ux, Initial residual = 0.00438054, Final residual = 0.000292512, No Iterations 6
smoothSolver:  Solving for Uy, Initial residual = 0.0298889, Final residual = 0.00220375, No Iterations 6
GAMG:  Solving for p, Initial residual = 0.0306343, Final residual = 0.0021524, No Iterations 4
time step continuity errors : sum local = 0.0919842, global = 0.0120292, cumulative = 1.15175
smoothSolver:  Solving for epsilon, Initial residual = 0.00550241, Final residual = 0.000411295, No Iterations 3
smoothSolver:  Solving for k, Initial residual = 0.00863391, Final residual = 0.000601067, No Iterations 4
ExecutionTime = 1.84943 s  ClockTime = 1 s

Time = 100s

smoothSolver:  Solving for Ux, Initial residual = 0.0043811, Final residual = 0.00029252, No Iterations 6
smoothSolver:  Solving for Uy, Initial residual = 0.0303759, Final residual = 0.00223582, No Iterations 6
GAMG:  Solving for p, Initial residual = 0.0307333, Final residual = 0.00213972, No Iterations 4
time step continuity errors : sum local = 0.0910994, global = 0.0121718, cumulative = 1.16392
smoothSolver:  Solving for epsilon, Initial residual = 0.00550164, Final residual = 0.000411915, No Iterations 3
smoothSolver:  Solving for k, Initial residual = 0.00863344, Final residual = 0.000600388, No Iterations 4
ExecutionTime = 1.88971 s  ClockTime = 1 s

streamlines streamlines write:
    Seeded 10 particles
    Sampled 12095 locations

Time = 101s

smoothSolver:  Solving for Ux, Initial residual = 0.00438302, Final residual = 0.000292584, No Iterations 6
smoothSolver:  Solving for Uy, Initial residual = 0.0308696, Final residual = 0.002269, No Iterations 6
GAMG:  Solving for p, Initial residual = 0.0313204, Final residual = 0.00212487, No Iterations 4
time step continuity errors : sum local = 0.0903837, global = 0.0122968, cumulative = 1.17621
smoothSolver:  Solving for epsilon, Initial residual = 0.00546494, Final residual = 0.000408669, No Iterations 3
smoothSolver:  Solving for k, Initial residual = 0.00868087, Final residual = 0.000602437, No Iterations 4
ExecutionTime = 1.9756 s  ClockTime = 2 s

Time = 102s

smoothSolver:  Solving for Ux, Initial residual = 0.00438251, Final residual = 0.000292622, No Iterations 6
smoothSolver:  Solving for Uy, Initial residual = 0.0313622, Final residual = 0.00230232, No Iterations 6
GAMG:  Solving for p, Initial residual = 0.031655, Final residual = 0.00209325, No Iterations 4
time step continuity errors : sum local = 0.0887011, global = 0.0117589, cumulative = 1.18797
smoothSolver:  Solving for epsilon, Initial residual = 0.00544134, Final residual = 0.000405815, No Iterations 3
smoothSolver:  Solving for k, Initial residual = 0.00869793, Final residual = 0.000601773, No Iterations 4
ExecutionTime = 1.99223 s  ClockTime = 2 s

Time = 103s

smoothSolver:  Solving for Ux, Initial residual = 0.00438343, Final residual = 0.000292692, No Iterations 6
smoothSolver:  Solving for Uy, Initial residual = 0.0318554, Final residual = 0.00233575, No Iterations 6
GAMG:  Solving for p, Initial residual = 0.0323475, Final residual = 0.00205387, No Iterations 4
time step continuity errors : sum local = 0.0868814, global = 0.0107114, cumulative = 1.19868
smoothSolver:  Solving for epsilon, Initial residual = 0.00542718, Final residual = 0.000405146, No Iterations 3
smoothSolver:  Solving for k, Initial residual = 0.00873343, Final residual = 0.000602737, No Iterations 4
ExecutionTime = 2.01011 s  ClockTime = 2 s

Time = 104s

smoothSolver:  Solving for Ux, Initial residual = 0.00438314, Final residual = 0.000292672, No Iterations 6
smoothSolver:  Solving for Uy, Initial residual = 0.0323718, Final residual = 0.00236993, No Iterations 6
GAMG:  Solving for p, Initial residual = 0.0326806, Final residual = 0.00322338, No Iterations 3
time step continuity errors : sum local = 0.135731, global = -0.0135334, cumulative = 1.18515
smoothSolver:  Solving for epsilon, Initial residual = 0.00542271, Final residual = 0.0004056, No Iterations 3
smoothSolver:  Solving for k, Initial residual = 0.00874201, Final residual = 0.000601937, No Iterations 4
ExecutionTime = 2.02581 s  ClockTime = 2 s

Time = 105s

smoothSolver:  Solving for Ux, Initial residual = 0.00439649, Final residual = 0.00029301, No Iterations 6
smoothSolver:  Solving for Uy, Initial residual = 0.0327912, Final residual = 0.00239879, No Iterations 6
GAMG:  Solving for p, Initial residual = 0.0340341, Final residual = 0.00275332, No Iterations 4
time step continuity errors : sum local = 0.115829, global = -0.0163908, cumulative = 1.16876
smoothSolver:  Solving for epsilon, Initial residual = 0.005391, Final residual = 0.000401305, No Iterations 3
smoothSolver:  Solving for k, Initial residual = 0.00876194, Final residual = 0.000601502, No Iterations 4
ExecutionTime = 2.04229 s  ClockTime = 2 s

Time = 106s

smoothSolver:  Solving for Ux, Initial residual = 0.00437968, Final residual = 0.000292162, No Iterations 6
smoothSolver:  Solving for Uy, Initial residual = 0.0334113, Final residual = 0.0024375, No Iterations 6
GAMG:  Solving for p, Initial residual = 0.0339983, Final residual = 0.0025377, No Iterations 4
time step continuity errors : sum local = 0.106546, global = -0.0153721, cumulative = 1.15339
smoothSolver:  Solving for epsilon, Initial residual = 0.00537594, Final residual = 0.000401894, No Iterations 3
smoothSolver:  Solving for k, Initial residual = 0.00879414, Final residual = 0.000602076, No Iterations 4
ExecutionTime = 2.0586 s  ClockTime = 2 s

Time = 107s

smoothSolver:  Solving for Ux, Initial residual = 0.00437351, Final residual = 0.000292222, No Iterations 6
smoothSolver:  Solving for Uy, Initial residual = 0.0339273, Final residual = 0.00247219, No Iterations 6
GAMG:  Solving for p, Initial residual = 0.0347535, Final residual = 0.00250844, No Iterations 4
time step continuity errors : sum local = 0.104789, global = -0.0142278, cumulative = 1.13916
smoothSolver:  Solving for epsilon, Initial residual = 0.00534508, Final residual = 0.000398093, No Iterations 3
smoothSolver:  Solving for k, Initial residual = 0.00880547, Final residual = 0.000600512, No Iterations 4
ExecutionTime = 2.07654 s  ClockTime = 2 s

Time = 108s

smoothSolver:  Solving for Ux, Initial residual = 0.0043727, Final residual = 0.000292508, No Iterations 6
smoothSolver:  Solving for Uy, Initial residual = 0.0343962, Final residual = 0.00250457, No Iterations 6
GAMG:  Solving for p, Initial residual = 0.0353385, Final residual = 0.00256335, No Iterations 4
time step continuity errors : sum local = 0.106416, global = -0.0135317, cumulative = 1.12563
smoothSolver:  Solving for epsilon, Initial residual = 0.00533387, Final residual = 0.000395123, No Iterations 3
smoothSolver:  Solving for k, Initial residual = 0.00879862, Final residual = 0.000597911, No Iterations 4
ExecutionTime = 2.09251 s  ClockTime = 2 s

Time = 109s

smoothSolver:  Solving for Ux, Initial residual = 0.0043738, Final residual = 0.00029272, No Iterations 6
smoothSolver:  Solving for Uy, Initial residual = 0.034894, Final residual = 0.00253748, No Iterations 6
GAMG:  Solving for p, Initial residual = 0.0362481, Final residual = 0.00263866, No Iterations 4
time step continuity errors : sum local = 0.109199, global = -0.012973, cumulative = 1.11266
smoothSolver:  Solving for epsilon, Initial residual = 0.00530458, Final residual = 0.000392894, No Iterations 3
smoothSolver:  Solving for k, Initial residual = 0.00883952, Final residual = 0.000598096, No Iterations 4
ExecutionTime = 2.10846 s  ClockTime = 2 s

Time = 110s

smoothSolver:  Solving for Ux, Initial residual = 0.00437387, Final residual = 0.000292801, No Iterations 6
smoothSolver:  Solving for Uy, Initial residual = 0.0353883, Final residual = 0.00257006, No Iterations 6
GAMG:  Solving for p, Initial residual = 0.036652, Final residual = 0.00272147, No Iterations 4
time step continuity errors : sum local = 0.112099, global = -0.0119158, cumulative = 1.10074
smoothSolver:  Solving for epsilon, Initial residual = 0.00528554, Final residual = 0.000390186, No Iterations 3
smoothSolver:  Solving for k, Initial residual = 0.0088395, Final residual = 0.000595627, No Iterations 4
ExecutionTime = 2.12493 s  ClockTime = 2 s

Time = 111s

smoothSolver:  Solving for Ux, Initial residual = 0.00437227, Final residual = 0.000292715, No Iterations 6
smoothSolver:  Solving for Uy, Initial residual = 0.0358659, Final residual = 0.00260206, No Iterations 6
GAMG:  Solving for p, Initial residual = 0.037225, Final residual = 0.00264342, No Iterations 4
time step continuity errors : sum local = 0.108675, global = -0.0113386, cumulative = 1.0894
smoothSolver:  Solving for epsilon, Initial residual = 0.00527103, Final residual = 0.000387577, No Iterations 3
smoothSolver:  Solving for k, Initial residual = 0.00887279, Final residual = 0.000595228, No Iterations 4
ExecutionTime = 2.14278 s  ClockTime = 2 s

Time = 112s

smoothSolver:  Solving for Ux, Initial residual = 0.00437388, Final residual = 0.000292965, No Iterations 6
smoothSolver:  Solving for Uy, Initial residual = 0.0363905, Final residual = 0.0026356, No Iterations 6
GAMG:  Solving for p, Initial residual = 0.0380411, Final residual = 0.0026786, No Iterations 4
time step continuity errors : sum local = 0.110035, global = -0.0108303, cumulative = 1.07857
smoothSolver:  Solving for epsilon, Initial residual = 0.00524295, Final residual = 0.000385625, No Iterations 3
smoothSolver:  Solving for k, Initial residual = 0.0088782, Final residual = 0.000593521, No Iterations 4
ExecutionTime = 2.15891 s  ClockTime = 2 s

Time = 113s

smoothSolver:  Solving for Ux, Initial residual = 0.00437449, Final residual = 0.000293342, No Iterations 6
smoothSolver:  Solving for Uy, Initial residual = 0.036842, Final residual = 0.00266651, No Iterations 6
GAMG:  Solving for p, Initial residual = 0.0384198, Final residual = 0.00273323, No Iterations 4
time step continuity errors : sum local = 0.111987, global = -0.0103467, cumulative = 1.06822
smoothSolver:  Solving for epsilon, Initial residual = 0.00520873, Final residual = 0.000380336, No Iterations 3
smoothSolver:  Solving for k, Initial residual = 0.00890244, Final residual = 0.000592807, No Iterations 4
ExecutionTime = 2.17532 s  ClockTime = 2 s

Time = 114s

smoothSolver:  Solving for Ux, Initial residual = 0.0043785, Final residual = 0.000293854, No Iterations 6
smoothSolver:  Solving for Uy, Initial residual = 0.0373144, Final residual = 0.00269691, No Iterations 6
GAMG:  Solving for p, Initial residual = 0.0392021, Final residual = 0.00276388, No Iterations 4
time step continuity errors : sum local = 0.113228, global = -0.00983188, cumulative = 1.05839
smoothSolver:  Solving for epsilon, Initial residual = 0.00516883, Final residual = 0.000376623, No Iterations 3
smoothSolver:  Solving for k, Initial residual = 0.00892879, Final residual = 0.000592337, No Iterations 4
ExecutionTime = 2.19351 s  ClockTime = 2 s

Time = 115s

smoothSolver:  Solving for Ux, Initial residual = 0.00438372, Final residual = 0.000294456, No Iterations 6
smoothSolver:  Solving for Uy, Initial residual = 0.0377903, Final residual = 0.00272832, No Iterations 6
GAMG:  Solving for p, Initial residual = 0.0397882, Final residual = 0.00277605, No Iterations 4
time step continuity errors : sum local = 0.113864, global = -0.00924797, cumulative = 1.04914
smoothSolver:  Solving for epsilon, Initial residual = 0.00514016, Final residual = 0.000372767, No Iterations 3
smoothSolver:  Solving for k, Initial residual = 0.00892773, Final residual = 0.000590244, No Iterations 4
ExecutionTime = 2.21022 s  ClockTime = 2 s

Time = 116s

smoothSolver:  Solving for Ux, Initial residual = 0.00439098, Final residual = 0.000295129, No Iterations 6
smoothSolver:  Solving for Uy, Initial residual = 0.0382869, Final residual = 0.0027609, No Iterations 6
[...]
GAMG:  Solving for p, Initial residual = 0.00268954, Final residual = 0.000223905, No Iterations 6
time step continuity errors : sum local = 0.0087286, global = 0.0005673, cumulative = 1.02209
smoothSolver:  Solving for epsilon, Initial residual = 0.000614906, Final residual = 5.55273e-05, No Iterations 3
smoothSolver:  Solving for k, Initial residual = 0.00109882, Final residual = 7.31363e-05, No Iterations 4
ExecutionTime = 4.31647 s  ClockTime = 4 s

Time = 236s

smoothSolver:  Solving for Ux, Initial residual = 0.000405758, Final residual = 3.94265e-05, No Iterations 5
smoothSolver:  Solving for Uy, Initial residual = 0.00266422, Final residual = 0.00017851, No Iterations 6
GAMG:  Solving for p, Initial residual = 0.00253211, Final residual = 0.000209169, No Iterations 6
time step continuity errors : sum local = 0.00816012, global = 0.000492703, cumulative = 1.02258
smoothSolver:  Solving for epsilon, Initial residual = 0.000593145, Final residual = 5.36747e-05, No Iterations 3
smoothSolver:  Solving for k, Initial residual = 0.00106226, Final residual = 7.14843e-05, No Iterations 4
ExecutionTime = 4.33407 s  ClockTime = 4 s

Time = 237s

smoothSolver:  Solving for Ux, Initial residual = 0.00038551, Final residual = 3.75971e-05, No Iterations 5
smoothSolver:  Solving for Uy, Initial residual = 0.00258271, Final residual = 0.000174398, No Iterations 6
GAMG:  Solving for p, Initial residual = 0.0024721, Final residual = 0.000195613, No Iterations 6
time step continuity errors : sum local = 0.00763567, global = 0.000439593, cumulative = 1.02302
smoothSolver:  Solving for epsilon, Initial residual = 0.000578853, Final residual = 5.18756e-05, No Iterations 3
smoothSolver:  Solving for k, Initial residual = 0.00102462, Final residual = 6.90237e-05, No Iterations 4
ExecutionTime = 4.35252 s  ClockTime = 4 s

Time = 238s

smoothSolver:  Solving for Ux, Initial residual = 0.000365883, Final residual = 3.58692e-05, No Iterations 5
smoothSolver:  Solving for Uy, Initial residual = 0.00250505, Final residual = 0.000170373, No Iterations 6
GAMG:  Solving for p, Initial residual = 0.00240205, Final residual = 0.000183979, No Iterations 6
time step continuity errors : sum local = 0.00719028, global = 0.000397843, cumulative = 1.02342
smoothSolver:  Solving for epsilon, Initial residual = 0.000561879, Final residual = 5.04795e-05, No Iterations 3
smoothSolver:  Solving for k, Initial residual = 0.000993109, Final residual = 6.67989e-05, No Iterations 4
ExecutionTime = 4.37099 s  ClockTime = 4 s

Time = 239s

smoothSolver:  Solving for Ux, Initial residual = 0.000347319, Final residual = 3.42718e-05, No Iterations 5
smoothSolver:  Solving for Uy, Initial residual = 0.00243272, Final residual = 0.000166382, No Iterations 6
GAMG:  Solving for p, Initial residual = 0.0023142, Final residual = 0.000171386, No Iterations 6
time step continuity errors : sum local = 0.00670249, global = 0.00034831, cumulative = 1.02376
smoothSolver:  Solving for epsilon, Initial residual = 0.000549204, Final residual = 4.90851e-05, No Iterations 3
smoothSolver:  Solving for k, Initial residual = 0.000960476, Final residual = 6.43722e-05, No Iterations 4
ExecutionTime = 4.38826 s  ClockTime = 4 s

Time = 240s

smoothSolver:  Solving for Ux, Initial residual = 0.000330845, Final residual = 3.28163e-05, No Iterations 5
smoothSolver:  Solving for Uy, Initial residual = 0.00236888, Final residual = 0.000162315, No Iterations 6
GAMG:  Solving for p, Initial residual = 0.00228627, Final residual = 0.000187096, No Iterations 5
time step continuity errors : sum local = 0.00732622, global = 0.000459562, cumulative = 1.02422
smoothSolver:  Solving for epsilon, Initial residual = 0.000531486, Final residual = 4.73471e-05, No Iterations 3
smoothSolver:  Solving for k, Initial residual = 0.000927575, Final residual = 6.1919e-05, No Iterations 4
ExecutionTime = 4.40456 s  ClockTime = 4 s

Time = 241s

smoothSolver:  Solving for Ux, Initial residual = 0.000315742, Final residual = 3.14495e-05, No Iterations 5
smoothSolver:  Solving for Uy, Initial residual = 0.00230968, Final residual = 0.000158108, No Iterations 6
GAMG:  Solving for p, Initial residual = 0.00230086, Final residual = 0.000228528, No Iterations 5
time step continuity errors : sum local = 0.00894876, global = 0.000566161, cumulative = 1.02479
smoothSolver:  Solving for epsilon, Initial residual = 0.000518665, Final residual = 4.57602e-05, No Iterations 3
smoothSolver:  Solving for k, Initial residual = 0.000893497, Final residual = 5.93144e-05, No Iterations 4
ExecutionTime = 4.42094 s  ClockTime = 4 s

Time = 242s

smoothSolver:  Solving for Ux, Initial residual = 0.000302204, Final residual = 3.02041e-05, No Iterations 5
smoothSolver:  Solving for Uy, Initial residual = 0.00225514, Final residual = 0.000153623, No Iterations 6
GAMG:  Solving for p, Initial residual = 0.00232767, Final residual = 0.000215163, No Iterations 6
time step continuity errors : sum local = 0.00843702, global = -0.000864092, cumulative = 1.02393
smoothSolver:  Solving for epsilon, Initial residual = 0.000502207, Final residual = 4.39388e-05, No Iterations 3
smoothSolver:  Solving for k, Initial residual = 0.000858489, Final residual = 5.67305e-05, No Iterations 4
ExecutionTime = 4.43801 s  ClockTime = 4 s

Time = 243s

smoothSolver:  Solving for Ux, Initial residual = 0.000288933, Final residual = 1.86283e-05, No Iterations 6
smoothSolver:  Solving for Uy, Initial residual = 0.00220251, Final residual = 0.000149446, No Iterations 6
GAMG:  Solving for p, Initial residual = 0.00232781, Final residual = 0.000209534, No Iterations 6
time step continuity errors : sum local = 0.00822038, global = -0.000736921, cumulative = 1.02319
smoothSolver:  Solving for epsilon, Initial residual = 0.000485909, Final residual = 4.20437e-05, No Iterations 3
smoothSolver:  Solving for k, Initial residual = 0.000824001, Final residual = 5.40332e-05, No Iterations 4
ExecutionTime = 4.45517 s  ClockTime = 4 s

Time = 244s

smoothSolver:  Solving for Ux, Initial residual = 0.000275939, Final residual = 1.78518e-05, No Iterations 6
smoothSolver:  Solving for Uy, Initial residual = 0.00217227, Final residual = 0.000147052, No Iterations 6
GAMG:  Solving for p, Initial residual = 0.00224347, Final residual = 0.000210245, No Iterations 6
time step continuity errors : sum local = 0.00825795, global = -0.00074683, cumulative = 1.02244
smoothSolver:  Solving for epsilon, Initial residual = 0.000469756, Final residual = 4.01969e-05, No Iterations 3
smoothSolver:  Solving for k, Initial residual = 0.000786876, Final residual = 5.13072e-05, No Iterations 4
ExecutionTime = 4.47251 s  ClockTime = 4 s

Time = 245s

smoothSolver:  Solving for Ux, Initial residual = 0.000264426, Final residual = 1.71249e-05, No Iterations 6
smoothSolver:  Solving for Uy, Initial residual = 0.00212322, Final residual = 0.000143056, No Iterations 6
GAMG:  Solving for p, Initial residual = 0.00221775, Final residual = 0.000205412, No Iterations 6
time step continuity errors : sum local = 0.00806455, global = -0.000711962, cumulative = 1.02173
smoothSolver:  Solving for epsilon, Initial residual = 0.000453396, Final residual = 3.83376e-05, No Iterations 3
smoothSolver:  Solving for k, Initial residual = 0.000752211, Final residual = 4.8593e-05, No Iterations 4
ExecutionTime = 4.48977 s  ClockTime = 4 s

Time = 246s

smoothSolver:  Solving for Ux, Initial residual = 0.000254115, Final residual = 1.64741e-05, No Iterations 6
smoothSolver:  Solving for Uy, Initial residual = 0.00206931, Final residual = 0.00013823, No Iterations 6
GAMG:  Solving for p, Initial residual = 0.00222135, Final residual = 0.000193509, No Iterations 6
time step continuity errors : sum local = 0.00760657, global = -0.000625012, cumulative = 1.02111
smoothSolver:  Solving for epsilon, Initial residual = 0.000435736, Final residual = 3.64464e-05, No Iterations 3
smoothSolver:  Solving for k, Initial residual = 0.000717128, Final residual = 4.59712e-05, No Iterations 4
ExecutionTime = 4.50713 s  ClockTime = 4 s

Time = 247s

smoothSolver:  Solving for Ux, Initial residual = 0.000244245, Final residual = 1.58895e-05, No Iterations 6
smoothSolver:  Solving for Uy, Initial residual = 0.00200523, Final residual = 0.000132962, No Iterations 6
GAMG:  Solving for p, Initial residual = 0.00216893, Final residual = 0.000215925, No Iterations 5
time step continuity errors : sum local = 0.00848204, global = 0.000385057, cumulative = 1.02149
smoothSolver:  Solving for epsilon, Initial residual = 0.000417209, Final residual = 3.45916e-05, No Iterations 3
smoothSolver:  Solving for k, Initial residual = 0.000684394, Final residual = 4.3363e-05, No Iterations 4
ExecutionTime = 4.52384 s  ClockTime = 4 s

Time = 248s

smoothSolver:  Solving for Ux, Initial residual = 0.000235344, Final residual = 1.53847e-05, No Iterations 6
smoothSolver:  Solving for Uy, Initial residual = 0.00193482, Final residual = 0.000127278, No Iterations 6
GAMG:  Solving for p, Initial residual = 0.00210275, Final residual = 0.000193377, No Iterations 6
time step continuity errors : sum local = 0.00760513, global = -0.000593495, cumulative = 1.0209
smoothSolver:  Solving for epsilon, Initial residual = 0.00040024, Final residual = 3.27003e-05, No Iterations 3
smoothSolver:  Solving for k, Initial residual = 0.000654221, Final residual = 4.0878e-05, No Iterations 4
ExecutionTime = 4.54161 s  ClockTime = 4 s

Time = 249s

smoothSolver:  Solving for Ux, Initial residual = 0.000226631, Final residual = 1.48491e-05, No Iterations 6
smoothSolver:  Solving for Uy, Initial residual = 0.00186527, Final residual = 0.000121582, No Iterations 6
GAMG:  Solving for p, Initial residual = 0.00200652, Final residual = 0.000200331, No Iterations 5
time step continuity errors : sum local = 0.00787494, global = 0.000356301, cumulative = 1.02125
smoothSolver:  Solving for epsilon, Initial residual = 0.000384535, Final residual = 3.10293e-05, No Iterations 3
smoothSolver:  Solving for k, Initial residual = 0.00062237, Final residual = 3.84412e-05, No Iterations 4
ExecutionTime = 4.55911 s  ClockTime = 4 s

Time = 250s

smoothSolver:  Solving for Ux, Initial residual = 0.000218825, Final residual = 1.44391e-05, No Iterations 6
smoothSolver:  Solving for Uy, Initial residual = 0.00179587, Final residual = 0.000115909, No Iterations 6
GAMG:  Solving for p, Initial residual = 0.00195814, Final residual = 0.000177916, No Iterations 6
time step continuity errors : sum local = 0.00700259, global = -0.0005648, cumulative = 1.02069
smoothSolver:  Solving for epsilon, Initial residual = 0.00037104, Final residual = 2.92846e-05, No Iterations 3
smoothSolver:  Solving for k, Initial residual = 0.000595511, Final residual = 3.62121e-05, No Iterations 4
ExecutionTime = 4.57713 s  ClockTime = 4 s

Time = 251s

smoothSolver:  Solving for Ux, Initial residual = 0.000211464, Final residual = 1.39909e-05, No Iterations 6
smoothSolver:  Solving for Uy, Initial residual = 0.00172297, Final residual = 0.000110132, No Iterations 6
GAMG:  Solving for p, Initial residual = 0.00184639, Final residual = 0.000162333, No Iterations 6
time step continuity errors : sum local = 0.00638603, global = -0.000526044, cumulative = 1.02016
smoothSolver:  Solving for epsilon, Initial residual = 0.000353161, Final residual = 2.771e-05, No Iterations 3
smoothSolver:  Solving for k, Initial residual = 0.000565895, Final residual = 3.40961e-05, No Iterations 4
ExecutionTime = 4.59479 s  ClockTime = 4 s

Time = 252s

smoothSolver:  Solving for Ux, Initial residual = 0.000204457, Final residual = 1.35979e-05, No Iterations 6
smoothSolver:  Solving for Uy, Initial residual = 0.00165295, Final residual = 0.000163931, No Iterations 5
GAMG:  Solving for p, Initial residual = 0.00174735, Final residual = 0.000156427, No Iterations 6
time step continuity errors : sum local = 0.00616123, global = -0.00053163, cumulative = 1.01963
smoothSolver:  Solving for epsilon, Initial residual = 0.000337668, Final residual = 2.61729e-05, No Iterations 3
smoothSolver:  Solving for k, Initial residual = 0.000539395, Final residual = 3.22026e-05, No Iterations 4
ExecutionTime = 4.61369 s  ClockTime = 4 s

Time = 253s

smoothSolver:  Solving for Ux, Initial residual = 0.000198226, Final residual = 1.32037e-05, No Iterations 6
smoothSolver:  Solving for Uy, Initial residual = 0.00160789, Final residual = 0.000158068, No Iterations 5
GAMG:  Solving for p, Initial residual = 0.00170106, Final residual = 0.000152172, No Iterations 6
time step continuity errors : sum local = 0.00598958, global = -0.000547461, cumulative = 1.01908
smoothSolver:  Solving for epsilon, Initial residual = 0.000322704, Final residual = 2.47253e-05, No Iterations 3
smoothSolver:  Solving for k, Initial residual = 0.000513703, Final residual = 3.03635e-05, No Iterations 4
ExecutionTime = 4.63094 s  ClockTime = 4 s

Time = 254s

smoothSolver:  Solving for Ux, Initial residual = 0.00019258, Final residual = 1.28147e-05, No Iterations 6
smoothSolver:  Solving for Uy, Initial residual = 0.00155506, Final residual = 0.000150898, No Iterations 5
GAMG:  Solving for p, Initial residual = 0.00171297, Final residual = 0.000146834, No Iterations 6
time step continuity errors : sum local = 0.00578646, global = -0.000550717, cumulative = 1.01853
smoothSolver:  Solving for epsilon, Initial residual = 0.000309298, Final residual = 2.33572e-05, No Iterations 3
smoothSolver:  Solving for k, Initial residual = 0.000488077, Final residual = 2.85622e-05, No Iterations 4
ExecutionTime = 4.6486 s  ClockTime = 4 s

Time = 255s

smoothSolver:  Solving for Ux, Initial residual = 0.000187381, Final residual = 1.24046e-05, No Iterations 6
smoothSolver:  Solving for Uy, Initial residual = 0.00148661, Final residual = 0.000143179, No Iterations 5
GAMG:  Solving for p, Initial residual = 0.00161452, Final residual = 0.000142903, No Iterations 6
time step continuity errors : sum local = 0.00562601, global = -0.000549311, cumulative = 1.01798
smoothSolver:  Solving for epsilon, Initial residual = 0.000294203, Final residual = 2.21399e-05, No Iterations 3
smoothSolver:  Solving for k, Initial residual = 0.000464976, Final residual = 2.69135e-05, No Iterations 4
ExecutionTime = 4.66573 s  ClockTime = 4 s

Time = 256s

smoothSolver:  Solving for Ux, Initial residual = 0.000182153, Final residual = 1.19661e-05, No Iterations 6
smoothSolver:  Solving for Uy, Initial residual = 0.00141573, Final residual = 0.000135261, No Iterations 5
GAMG:  Solving for p, Initial residual = 0.00150425, Final residual = 0.000132942, No Iterations 6
time step continuity errors : sum local = 0.00523708, global = -0.000443772, cumulative = 1.01754
smoothSolver:  Solving for epsilon, Initial residual = 0.000283444, Final residual = 2.08712e-05, No Iterations 3
smoothSolver:  Solving for k, Initial residual = 0.000441492, Final residual = 2.53549e-05, No Iterations 4
ExecutionTime = 4.68493 s  ClockTime = 4 s

Time = 257s

smoothSolver:  Solving for Ux, Initial residual = 0.000176717, Final residual = 1.15084e-05, No Iterations 6
smoothSolver:  Solving for Uy, Initial residual = 0.00134686, Final residual = 0.000127952, No Iterations 5
GAMG:  Solving for p, Initial residual = 0.00144064, Final residual = 0.000128484, No Iterations 6
time step continuity errors : sum local = 0.00505719, global = -0.000410676, cumulative = 1.01713
smoothSolver:  Solving for epsilon, Initial residual = 0.000269544, Final residual = 1.97994e-05, No Iterations 3
smoothSolver:  Solving for k, Initial residual = 0.000420401, Final residual = 2.39278e-05, No Iterations 4
ExecutionTime = 4.70229 s  ClockTime = 4 s

Time = 258s

smoothSolver:  Solving for Ux, Initial residual = 0.000170918, Final residual = 1.10183e-05, No Iterations 6
smoothSolver:  Solving for Uy, Initial residual = 0.00128384, Final residual = 0.000121376, No Iterations 5
GAMG:  Solving for p, Initial residual = 0.00140129, Final residual = 0.000119826, No Iterations 6
time step continuity errors : sum local = 0.00471872, global = -0.000361569, cumulative = 1.01677
smoothSolver:  Solving for epsilon, Initial residual = 0.000257074, Final residual = 1.8685e-05, No Iterations 3
smoothSolver:  Solving for k, Initial residual = 0.00039847, Final residual = 2.26468e-05, No Iterations 4
ExecutionTime = 4.71945 s  ClockTime = 4 s

Time = 259s

smoothSolver:  Solving for Ux, Initial residual = 0.000164801, Final residual = 1.6463e-05, No Iterations 5
smoothSolver:  Solving for Uy, Initial residual = 0.00122031, Final residual = 0.000115631, No Iterations 5
GAMG:  Solving for p, Initial residual = 0.001286, Final residual = 0.000107796, No Iterations 6
time step continuity errors : sum local = 0.00424044, global = -0.000317275, cumulative = 1.01645
smoothSolver:  Solving for epsilon, Initial residual = 0.000243068, Final residual = 1.77317e-05, No Iterations 3
smoothSolver:  Solving for k, Initial residual = 0.00037963, Final residual = 3.78641e-05, No Iterations 3
ExecutionTime = 4.73705 s  ClockTime = 4 s

Time = 260s

smoothSolver:  Solving for Ux, Initial residual = 0.00015932, Final residual = 1.58087e-05, No Iterations 5
smoothSolver:  Solving for Uy, Initial residual = 0.00114777, Final residual = 0.000109212, No Iterations 5
GAMG:  Solving for p, Initial residual = 0.00122936, Final residual = 9.78389e-05, No Iterations 6
time step continuity errors : sum local = 0.00385012, global = -0.00026785, cumulative = 1.01618
smoothSolver:  Solving for epsilon, Initial residual = 0.000231733, Final residual = 1.66705e-05, No Iterations 3
smoothSolver:  Solving for k, Initial residual = 0.000362696, Final residual = 3.60996e-05, No Iterations 3
ExecutionTime = 4.75442 s  ClockTime = 4 s

Time = 261s

smoothSolver:  Solving for Ux, Initial residual = 0.000153669, Final residual = 1.51198e-05, No Iterations 5
smoothSolver:  Solving for Uy, Initial residual = 0.00108812, Final residual = 0.000104319, No Iterations 5
GAMG:  Solving for p, Initial residual = 0.001188, Final residual = 9.07743e-05, No Iterations 6
time step continuity errors : sum local = 0.00356884, global = -0.000242718, cumulative = 1.01594
smoothSolver:  Solving for epsilon, Initial residual = 0.000220767, Final residual = 1.58566e-05, No Iterations 3
smoothSolver:  Solving for k, Initial residual = 0.000347803, Final residual = 3.46595e-05, No Iterations 3
ExecutionTime = 4.77135 s  ClockTime = 4 s

Time = 262s

smoothSolver:  Solving for Ux, Initial residual = 0.000147853, Final residual = 1.4425e-05, No Iterations 5
smoothSolver:  Solving for Uy, Initial residual = 0.00104014, Final residual = 0.000100694, No Iterations 5
GAMG:  Solving for p, Initial residual = 0.00118337, Final residual = 0.000113679, No Iterations 5
time step continuity errors : sum local = 0.00447041, global = 0.00048506, cumulative = 1.01642
smoothSolver:  Solving for epsilon, Initial residual = 0.000213489, Final residual = 1.50639e-05, No Iterations 3
smoothSolver:  Solving for k, Initial residual = 0.000333465, Final residual = 3.32295e-05, No Iterations 3
ExecutionTime = 4.78933 s  ClockTime = 4 s

Time = 263s

smoothSolver:  Solving for Ux, Initial residual = 0.000141558, Final residual = 1.37491e-05, No Iterations 5
smoothSolver:  Solving for Uy, Initial residual = 0.000992977, Final residual = 9.76033e-05, No Iterations 5
GAMG:  Solving for p, Initial residual = 0.00111391, Final residual = 8.36118e-05, No Iterations 5
time step continuity errors : sum local = 0.00328425, global = 1.43417e-05, cumulative = 1.01644
smoothSolver:  Solving for epsilon, Initial residual = 0.000202631, Final residual = 1.44691e-05, No Iterations 3
smoothSolver:  Solving for k, Initial residual = 0.000320772, Final residual = 3.20514e-05, No Iterations 3
ExecutionTime = 4.80581 s  ClockTime = 4 s


SIMPLE solution converged in 263 iterations

streamlines streamlines write:
    Seeded 10 particles
    Sampled 12035 locations

End

