/*---------------------------------------------------------------------------*\
  =========                 |
  \\      /  F ield         | OpenFOAM: The Open Source CFD Toolbox
   \\    /   O peration     | Website:  https://openfoam.org
    \\  /    A nd           | Version:  13
     \\/     M anipulation  |
\*---------------------------------------------------------------------------*/
Build  : 13-cde978a97c93
Exec   : foamPostProcess -solver incompressibleFluid -func patchProbes_lowerWallTau -latestTime
Date   : Feb 02 2026
Time   : 14:17:21
Host   : "JOO-DESKTOP"
PID    : 55576
I/O    : uncollated
Case   : /home/joo/OpenFOAM/joo-13/run/portfolio_openfoam/trackA/00_pitzDailySteady
nProcs : 1
sigFpe : Enabling floating point exception trapping (FOAM_SIGFPE).
fileModificationChecking : Monitoring run-time modified files using timeStampMaster (fileModificationSkew 10)
allowSystemOperations : Allowing user-supplied system call operations

// * * * * * * * * * * * * * * * * * * * * * * * * * * * * * * * * * * * * * //
Create time

Create mesh for time = 285

--> FOAM Warning : 
    From function virtual void Foam::probes::findElements(const Foam::fvMesh&)
    in file probes/probes.C at line 121
    Did not find location (0.206158 -0.0254 0) in any cell. Skipping location.
--> FOAM Warning : 
    From function virtual void Foam::probes::findElements(const Foam::fvMesh&)
    in file probes/probes.C at line 121
    Did not find location (0.206521 -0.0254 0) in any cell. Skipping location.
--> FOAM Warning : 
    From function virtual void Foam::probes::findElements(const Foam::fvMesh&)
    in file probes/probes.C at line 121
    Did not find location (0.206884 -0.0254 0) in any cell. Skipping location.
--> FOAM Warning : 
    From function virtual void Foam::probes::findElements(const Foam::fvMesh&)
    in file probes/probes.C at line 121
    Did not find location (0.207247 -0.0254 0) in any cell. Skipping location.
--> FOAM Warning : 
    From function virtual void Foam::probes::findElements(const Foam::fvMesh&)
    in file probes/probes.C at line 121
    Did not find location (0.20761 -0.0254 0) in any cell. Skipping location.
--> FOAM Warning : 
    From function virtual void Foam::probes::findElements(const Foam::fvMesh&)
    in file probes/probes.C at line 121
    Did not find location (0.207972 -0.0254 0) in any cell. Skipping location.
--> FOAM Warning : 
    From function virtual void Foam::probes::findElements(const Foam::fvMesh&)
    in file probes/probes.C at line 121
    Did not find location (0.208335 -0.0254 0) in any cell. Skipping location.
--> FOAM Warning : 
    From function virtual void Foam::probes::findElements(const Foam::fvMesh&)
    in file probes/probes.C at line 121
    Did not find location (0.208698 -0.0254 0) in any cell. Skipping location.
--> FOAM Warning : 
    From function virtual void Foam::probes::findElements(const Foam::fvMesh&)
    in file probes/probes.C at line 121
    Did not find location (0.209061 -0.0254 0) in any cell. Skipping location.
--> FOAM Warning : 
    From function virtual void Foam::probes::findElements(const Foam::fvMesh&)
    in file probes/probes.C at line 121
    Did not find location (0.209424 -0.0254 0) in any cell. Skipping location.
--> FOAM Warning : 
    From function virtual void Foam::probes::findElements(const Foam::fvMesh&)
    in file probes/probes.C at line 121
    Did not find location (0.209787 -0.0254 0) in any cell. Skipping location.
--> FOAM Warning : 
    From function virtual void Foam::probes::findElements(const Foam::fvMesh&)
    in file probes/probes.C at line 121
    Did not find location (0.21015 -0.0254 0) in any cell. Skipping location.
--> FOAM Warning : 
    From function virtual void Foam::probes::findElements(const Foam::fvMesh&)
    in file probes/probes.C at line 121
    Did not find location (0.210513 -0.0254 0) in any cell. Skipping location.
--> FOAM Warning : 
    From function virtual void Foam::probes::findElements(const Foam::fvMesh&)
    in file probes/probes.C at line 121
    Did not find location (0.210876 -0.0254 0) in any cell. Skipping location.
--> FOAM Warning : 
    From function virtual void Foam::probes::findElements(const Foam::fvMesh&)
    in file probes/probes.C at line 121
    Did not find location (0.211239 -0.0254 0) in any cell. Skipping location.
--> FOAM Warning : 
    From function virtual void Foam::probes::findElements(const Foam::fvMesh&)
    in file probes/probes.C at line 121
    Did not find location (0.211602 -0.0254 0) in any cell. Skipping location.
--> FOAM Warning : 
    From function virtual void Foam::probes::findElements(const Foam::fvMesh&)
    in file probes/probes.C at line 121
    Did not find location (0.211965 -0.0254 0) in any cell. Skipping location.
--> FOAM Warning : 
    From function virtual void Foam::probes::findElements(const Foam::fvMesh&)
    in file probes/probes.C at line 121
    Did not find location (0.212328 -0.0254 0) in any cell. Skipping location.
--> FOAM Warning : 
    From function virtual void Foam::probes::findElements(const Foam::fvMesh&)
    in file probes/probes.C at line 121
    Did not find location (0.212691 -0.0254 0) in any cell. Skipping location.
--> FOAM Warning : 
    From function virtual void Foam::probes::findElements(const Foam::fvMesh&)
    in file probes/probes.C at line 121
    Did not find location (0.213054 -0.0254 0) in any cell. Skipping location.
--> FOAM Warning : 
    From function virtual void Foam::probes::findElements(const Foam::fvMesh&)
    in file probes/probes.C at line 121
    Did not find location (0.213417 -0.0254 0) in any cell. Skipping location.
--> FOAM Warning : 
    From function virtual void Foam::probes::findElements(const Foam::fvMesh&)
    in file probes/probes.C at line 121
    Did not find location (0.21378 -0.0254 0) in any cell. Skipping location.
--> FOAM Warning : 
    From function virtual void Foam::probes::findElements(const Foam::fvMesh&)
    in file probes/probes.C at line 121
    Did not find location (0.214143 -0.0254 0) in any cell. Skipping location.
--> FOAM Warning : 
    From function virtual void Foam::probes::findElements(const Foam::fvMesh&)
    in file probes/probes.C at line 121
    Did not find location (0.214506 -0.0254 0) in any cell. Skipping location.
--> FOAM Warning : 
    From function virtual void Foam::probes::findElements(const Foam::fvMesh&)
    in file probes/probes.C at line 121
    Did not find location (0.214869 -0.0254 0) in any cell. Skipping location.
--> FOAM Warning : 
    From function virtual void Foam::probes::findElements(const Foam::fvMesh&)
    in file probes/probes.C at line 121
    Did not find location (0.215232 -0.0254 0) in any cell. Skipping location.
--> FOAM Warning : 
    From function virtual void Foam::probes::findElements(const Foam::fvMesh&)
    in file probes/probes.C at line 121
    Did not find location (0.215594 -0.0254 0) in any cell. Skipping location.
--> FOAM Warning : 
    From function virtual void Foam::probes::findElements(const Foam::fvMesh&)
    in file probes/probes.C at line 121
    Did not find location (0.215957 -0.0254 0) in any cell. Skipping location.
--> FOAM Warning : 
    From function virtual void Foam::probes::findElements(const Foam::fvMesh&)
    in file probes/probes.C at line 121
    Did not find location (0.21632 -0.0254 0) in any cell. Skipping location.
--> FOAM Warning : 
    From function virtual void Foam::probes::findElements(const Foam::fvMesh&)
    in file probes/probes.C at line 121
    Did not find location (0.216683 -0.0254 0) in any cell. Skipping location.
--> FOAM Warning : 
    From function virtual void Foam::probes::findElements(const Foam::fvMesh&)
    in file probes/probes.C at line 121
    Did not find location (0.217046 -0.0254 0) in any cell. Skipping location.
--> FOAM Warning : 
    From function virtual void Foam::probes::findElements(const Foam::fvMesh&)
    in file probes/probes.C at line 121
    Did not find location (0.217409 -0.0254 0) in any cell. Skipping location.
--> FOAM Warning : 
    From function virtual void Foam::probes::findElements(const Foam::fvMesh&)
    in file probes/probes.C at line 121
    Did not find location (0.217772 -0.0254 0) in any cell. Skipping location.
--> FOAM Warning : 
    From function virtual void Foam::probes::findElements(const Foam::fvMesh&)
    in file probes/probes.C at line 121
    Did not find location (0.218135 -0.0254 0) in any cell. Skipping location.
--> FOAM Warning : 
    From function virtual void Foam::probes::findElements(const Foam::fvMesh&)
    in file probes/probes.C at line 121
    Did not find location (0.218498 -0.0254 0) in any cell. Skipping location.
--> FOAM Warning : 
    From function virtual void Foam::probes::findElements(const Foam::fvMesh&)
    in file probes/probes.C at line 121
    Did not find location (0.218861 -0.0254 0) in any cell. Skipping location.
--> FOAM Warning : 
    From function virtual void Foam::probes::findElements(const Foam::fvMesh&)
    in file probes/probes.C at line 121
    Did not find location (0.219224 -0.0254 0) in any cell. Skipping location.
--> FOAM Warning : 
    From function virtual void Foam::probes::findElements(const Foam::fvMesh&)
    in file probes/probes.C at line 121
    Did not find location (0.219587 -0.0254 0) in any cell. Skipping location.
--> FOAM Warning : 
    From function virtual void Foam::probes::findElements(const Foam::fvMesh&)
    in file probes/probes.C at line 121
    Did not find location (0.21995 -0.0254 0) in any cell. Skipping location.
--> FOAM Warning : 
    From function virtual void Foam::probes::findElements(const Foam::fvMesh&)
    in file probes/probes.C at line 121
    Did not find location (0.220313 -0.0254 0) in any cell. Skipping location.
--> FOAM Warning : 
    From function virtual void Foam::probes::findElements(const Foam::fvMesh&)
    in file probes/probes.C at line 121
    Did not find location (0.220676 -0.0254 0) in any cell. Skipping location.
--> FOAM Warning : 
    From function virtual void Foam::probes::findElements(const Foam::fvMesh&)
    in file probes/probes.C at line 121
    Did not find location (0.221039 -0.0254 0) in any cell. Skipping location.
--> FOAM Warning : 
    From function virtual void Foam::probes::findElements(const Foam::fvMesh&)
    in file probes/probes.C at line 121
    Did not find location (0.221402 -0.0254 0) in any cell. Skipping location.
--> FOAM Warning : 
    From function virtual void Foam::probes::findElements(const Foam::fvMesh&)
    in file probes/probes.C at line 121
    Did not find location (0.221765 -0.0254 0) in any cell. Skipping location.
--> FOAM Warning : 
    From function virtual void Foam::probes::findElements(const Foam::fvMesh&)
    in file probes/probes.C at line 121
    Did not find location (0.222128 -0.0254 0) in any cell. Skipping location.
--> FOAM Warning : 
    From function virtual void Foam::probes::findElements(const Foam::fvMesh&)
    in file probes/probes.C at line 121
    Did not find location (0.222491 -0.0254 0) in any cell. Skipping location.
--> FOAM Warning : 
    From function virtual void Foam::probes::findElements(const Foam::fvMesh&)
    in file probes/probes.C at line 121
    Did not find location (0.222854 -0.0254 0) in any cell. Skipping location.
--> FOAM Warning : 
    From function virtual void Foam::probes::findElements(const Foam::fvMesh&)
    in file probes/probes.C at line 121
    Did not find location (0.223217 -0.0254 0) in any cell. Skipping location.
--> FOAM Warning : 
    From function virtual void Foam::probes::findElements(const Foam::fvMesh&)
    in file probes/probes.C at line 121
    Did not find location (0.223579 -0.0254 0) in any cell. Skipping location.
--> FOAM Warning : 
    From function virtual void Foam::probes::findElements(const Foam::fvMesh&)
    in file probes/probes.C at line 121
    Did not find location (0.223942 -0.0254 0) in any cell. Skipping location.
--> FOAM Warning : 
    From function virtual void Foam::probes::findElements(const Foam::fvMesh&)
    in file probes/probes.C at line 121
    Did not find location (0.224305 -0.0254 0) in any cell. Skipping location.
--> FOAM Warning : 
    From function virtual void Foam::probes::findElements(const Foam::fvMesh&)
    in file probes/probes.C at line 121
    Did not find location (0.224668 -0.0254 0) in any cell. Skipping location.
--> FOAM Warning : 
    From function virtual void Foam::probes::findElements(const Foam::fvMesh&)
    in file probes/probes.C at line 121
    Did not find location (0.225031 -0.0254 0) in any cell. Skipping location.
--> FOAM Warning : 
    From function virtual void Foam::probes::findElements(const Foam::fvMesh&)
    in file probes/probes.C at line 121
    Did not find location (0.225394 -0.0254 0) in any cell. Skipping location.
--> FOAM Warning : 
    From function virtual void Foam::probes::findElements(const Foam::fvMesh&)
    in file probes/probes.C at line 121
    Did not find location (0.225757 -0.0254 0) in any cell. Skipping location.
--> FOAM Warning : 
    From function virtual void Foam::probes::findElements(const Foam::fvMesh&)
    in file probes/probes.C at line 121
    Did not find location (0.22612 -0.0254 0) in any cell. Skipping location.
--> FOAM Warning : 
    From function virtual void Foam::probes::findElements(const Foam::fvMesh&)
    in file probes/probes.C at line 121
    Did not find location (0.226483 -0.0254 0) in any cell. Skipping location.
--> FOAM Warning : 
    From function virtual void Foam::probes::findElements(const Foam::fvMesh&)
    in file probes/probes.C at line 121
    Did not find location (0.226846 -0.0254 0) in any cell. Skipping location.
--> FOAM Warning : 
    From function virtual void Foam::probes::findElements(const Foam::fvMesh&)
    in file probes/probes.C at line 121
    Did not find location (0.227209 -0.0254 0) in any cell. Skipping location.
--> FOAM Warning : 
    From function virtual void Foam::probes::findElements(const Foam::fvMesh&)
    in file probes/probes.C at line 121
    Did not find location (0.227572 -0.0254 0) in any cell. Skipping location.
--> FOAM Warning : 
    From function virtual void Foam::probes::findElements(const Foam::fvMesh&)
    in file probes/probes.C at line 121
    Did not find location (0.227935 -0.0254 0) in any cell. Skipping location.
--> FOAM Warning : 
    From function virtual void Foam::probes::findElements(const Foam::fvMesh&)
    in file probes/probes.C at line 121
    Did not find location (0.228298 -0.0254 0) in any cell. Skipping location.
--> FOAM Warning : 
    From function virtual void Foam::probes::findElements(const Foam::fvMesh&)
    in file probes/probes.C at line 121
    Did not find location (0.228661 -0.0254 0) in any cell. Skipping location.
--> FOAM Warning : 
    From function virtual void Foam::probes::findElements(const Foam::fvMesh&)
    in file probes/probes.C at line 121
    Did not find location (0.229024 -0.0254 0) in any cell. Skipping location.
--> FOAM Warning : 
    From function virtual void Foam::probes::findElements(const Foam::fvMesh&)
    in file probes/probes.C at line 121
    Did not find location (0.229387 -0.0254 0) in any cell. Skipping location.
--> FOAM Warning : 
    From function virtual void Foam::probes::findElements(const Foam::fvMesh&)
    in file probes/probes.C at line 121
    Did not find location (0.22975 -0.0254 0) in any cell. Skipping location.
--> FOAM Warning : 
    From function virtual void Foam::probes::findElements(const Foam::fvMesh&)
    in file probes/probes.C at line 121
    Did not find location (0.230113 -0.0254 0) in any cell. Skipping location.
--> FOAM Warning : 
    From function virtual void Foam::probes::findElements(const Foam::fvMesh&)
    in file probes/probes.C at line 121
    Did not find location (0.230476 -0.0254 0) in any cell. Skipping location.
--> FOAM Warning : 
    From function virtual void Foam::probes::findElements(const Foam::fvMesh&)
    in file probes/probes.C at line 121
    Did not find location (0.230839 -0.0254 0) in any cell. Skipping location.
--> FOAM Warning : 
    From function virtual void Foam::probes::findElements(const Foam::fvMesh&)
    in file probes/probes.C at line 121
    Did not find location (0.231202 -0.0254 0) in any cell. Skipping location.
--> FOAM Warning : 
    From function virtual void Foam::probes::findElements(const Foam::fvMesh&)
    in file probes/probes.C at line 121
    Did not find location (0.231564 -0.0254 0) in any cell. Skipping location.
--> FOAM Warning : 
    From function virtual void Foam::probes::findElements(const Foam::fvMesh&)
    in file probes/probes.C at line 121
    Did not find location (0.231927 -0.0254 0) in any cell. Skipping location.
--> FOAM Warning : 
    From function virtual void Foam::probes::findElements(const Foam::fvMesh&)
    in file probes/probes.C at line 121
    Did not find location (0.23229 -0.0254 0) in any cell. Skipping location.
--> FOAM Warning : 
    From function virtual void Foam::probes::findElements(const Foam::fvMesh&)
    in file probes/probes.C at line 121
    Did not find location (0.232653 -0.0254 0) in any cell. Skipping location.
--> FOAM Warning : 
    From function virtual void Foam::probes::findElements(const Foam::fvMesh&)
    in file probes/probes.C at line 121
    Did not find location (0.233016 -0.0254 0) in any cell. Skipping location.
--> FOAM Warning : 
    From function virtual void Foam::probes::findElements(const Foam::fvMesh&)
    in file probes/probes.C at line 121
    Did not find location (0.233379 -0.0254 0) in any cell. Skipping location.
--> FOAM Warning : 
    From function virtual void Foam::probes::findElements(const Foam::fvMesh&)
    in file probes/probes.C at line 121
    Did not find location (0.233742 -0.0254 0) in any cell. Skipping location.
--> FOAM Warning : 
    From function virtual void Foam::probes::findElements(const Foam::fvMesh&)
    in file probes/probes.C at line 121
    Did not find location (0.234105 -0.0254 0) in any cell. Skipping location.
--> FOAM Warning : 
    From function virtual void Foam::probes::findElements(const Foam::fvMesh&)
    in file probes/probes.C at line 121
    Did not find location (0.234468 -0.0254 0) in any cell. Skipping location.
--> FOAM Warning : 
    From function virtual void Foam::probes::findElements(const Foam::fvMesh&)
    in file probes/probes.C at line 121
    Did not find location (0.234831 -0.0254 0) in any cell. Skipping location.
--> FOAM Warning : 
    From function virtual void Foam::probes::findElements(const Foam::fvMesh&)
    in file probes/probes.C at line 121
    Did not find location (0.235194 -0.0254 0) in any cell. Skipping location.
--> FOAM Warning : 
    From function virtual void Foam::probes::findElements(const Foam::fvMesh&)
    in file probes/probes.C at line 121
    Did not find location (0.235557 -0.0254 0) in any cell. Skipping location.
--> FOAM Warning : 
    From function virtual void Foam::probes::findElements(const Foam::fvMesh&)
    in file probes/probes.C at line 121
    Did not find location (0.23592 -0.0254 0) in any cell. Skipping location.
--> FOAM Warning : 
    From function virtual void Foam::probes::findElements(const Foam::fvMesh&)
    in file probes/probes.C at line 121
    Did not find location (0.236283 -0.0254 0) in any cell. Skipping location.
--> FOAM Warning : 
    From function virtual void Foam::probes::findElements(const Foam::fvMesh&)
    in file probes/probes.C at line 121
    Did not find location (0.236646 -0.0254 0) in any cell. Skipping location.
--> FOAM Warning : 
    From function virtual void Foam::probes::findElements(const Foam::fvMesh&)
    in file probes/probes.C at line 121
    Did not find location (0.237009 -0.0254 0) in any cell. Skipping location.
--> FOAM Warning : 
    From function virtual void Foam::probes::findElements(const Foam::fvMesh&)
    in file probes/probes.C at line 121
    Did not find location (0.237372 -0.0254 0) in any cell. Skipping location.
--> FOAM Warning : 
    From function virtual void Foam::probes::findElements(const Foam::fvMesh&)
    in file probes/probes.C at line 121
    Did not find location (0.237735 -0.0254 0) in any cell. Skipping location.
--> FOAM Warning : 
    From function virtual void Foam::probes::findElements(const Foam::fvMesh&)
    in file probes/probes.C at line 121
    Did not find location (0.238098 -0.0254 0) in any cell. Skipping location.
--> FOAM Warning : 
    From function virtual void Foam::probes::findElements(const Foam::fvMesh&)
    in file probes/probes.C at line 121
    Did not find location (0.238461 -0.0254 0) in any cell. Skipping location.
--> FOAM Warning : 
    From function virtual void Foam::probes::findElements(const Foam::fvMesh&)
    in file probes/probes.C at line 121
    Did not find location (0.238824 -0.0254 0) in any cell. Skipping location.
--> FOAM Warning : 
    From function virtual void Foam::probes::findElements(const Foam::fvMesh&)
    in file probes/probes.C at line 121
    Did not find location (0.239186 -0.0254 0) in any cell. Skipping location.
--> FOAM Warning : 
    From function virtual void Foam::probes::findElements(const Foam::fvMesh&)
    in file probes/probes.C at line 121
    Did not find location (0.239549 -0.0254 0) in any cell. Skipping location.
--> FOAM Warning : 
    From function virtual void Foam::probes::findElements(const Foam::fvMesh&)
    in file probes/probes.C at line 121
    Did not find location (0.239912 -0.0254 0) in any cell. Skipping location.
--> FOAM Warning : 
    From function virtual void Foam::probes::findElements(const Foam::fvMesh&)
    in file probes/probes.C at line 121
    Did not find location (0.240275 -0.0254 0) in any cell. Skipping location.
--> FOAM Warning : 
    From function virtual void Foam::probes::findElements(const Foam::fvMesh&)
    in file probes/probes.C at line 121
    Did not find location (0.240638 -0.0254 0) in any cell. Skipping location.
--> FOAM Warning : 
    From function virtual void Foam::probes::findElements(const Foam::fvMesh&)
    in file probes/probes.C at line 121
    Did not find location (0.241001 -0.0254 0) in any cell. Skipping location.
--> FOAM Warning : 
    From function virtual void Foam::probes::findElements(const Foam::fvMesh&)
    in file probes/probes.C at line 121
    Did not find location (0.241364 -0.0254 0) in any cell. Skipping location.
--> FOAM Warning : 
    From function virtual void Foam::probes::findElements(const Foam::fvMesh&)
    in file probes/probes.C at line 121
    Did not find location (0.241727 -0.0254 0) in any cell. Skipping location.
--> FOAM Warning : 
    From function virtual void Foam::probes::findElements(const Foam::fvMesh&)
    in file probes/probes.C at line 121
    Did not find location (0.24209 -0.0254 0) in any cell. Skipping location.
--> FOAM Warning : 
    From function virtual void Foam::probes::findElements(const Foam::fvMesh&)
    in file probes/probes.C at line 121
    Did not find location (0.242453 -0.0254 0) in any cell. Skipping location.
--> FOAM Warning : 
    From function virtual void Foam::probes::findElements(const Foam::fvMesh&)
    in file probes/probes.C at line 121
    Did not find location (0.242816 -0.0254 0) in any cell. Skipping location.
--> FOAM Warning : 
    From function virtual void Foam::probes::findElements(const Foam::fvMesh&)
    in file probes/probes.C at line 121
    Did not find location (0.243179 -0.0254 0) in any cell. Skipping location.
--> FOAM Warning : 
    From function virtual void Foam::probes::findElements(const Foam::fvMesh&)
    in file probes/probes.C at line 121
    Did not find location (0.243542 -0.0254 0) in any cell. Skipping location.
--> FOAM Warning : 
    From function virtual void Foam::probes::findElements(const Foam::fvMesh&)
    in file probes/probes.C at line 121
    Did not find location (0.243905 -0.0254 0) in any cell. Skipping location.
--> FOAM Warning : 
    From function virtual void Foam::probes::findElements(const Foam::fvMesh&)
    in file probes/probes.C at line 121
    Did not find location (0.244268 -0.0254 0) in any cell. Skipping location.
--> FOAM Warning : 
    From function virtual void Foam::probes::findElements(const Foam::fvMesh&)
    in file probes/probes.C at line 121
    Did not find location (0.244631 -0.0254 0) in any cell. Skipping location.
--> FOAM Warning : 
    From function virtual void Foam::probes::findElements(const Foam::fvMesh&)
    in file probes/probes.C at line 121
    Did not find location (0.244994 -0.0254 0) in any cell. Skipping location.
--> FOAM Warning : 
    From function virtual void Foam::probes::findElements(const Foam::fvMesh&)
    in file probes/probes.C at line 121
    Did not find location (0.245357 -0.0254 0) in any cell. Skipping location.
--> FOAM Warning : 
    From function virtual void Foam::probes::findElements(const Foam::fvMesh&)
    in file probes/probes.C at line 121
    Did not find location (0.24572 -0.0254 0) in any cell. Skipping location.
--> FOAM Warning : 
    From function virtual void Foam::probes::findElements(const Foam::fvMesh&)
    in file probes/probes.C at line 121
    Did not find location (0.246083 -0.0254 0) in any cell. Skipping location.
--> FOAM Warning : 
    From function virtual void Foam::probes::findElements(const Foam::fvMesh&)
    in file probes/probes.C at line 121
    Did not find location (0.246446 -0.0254 0) in any cell. Skipping location.
--> FOAM Warning : 
    From function virtual void Foam::probes::findElements(const Foam::fvMesh&)
    in file probes/probes.C at line 121
    Did not find location (0.246809 -0.0254 0) in any cell. Skipping location.
--> FOAM Warning : 
    From function virtual void Foam::probes::findElements(const Foam::fvMesh&)
    in file probes/probes.C at line 121
    Did not find location (0.247171 -0.0254 0) in any cell. Skipping location.
--> FOAM Warning : 
    From function virtual void Foam::probes::findElements(const Foam::fvMesh&)
    in file probes/probes.C at line 121
    Did not find location (0.247534 -0.0254 0) in any cell. Skipping location.
--> FOAM Warning : 
    From function virtual void Foam::probes::findElements(const Foam::fvMesh&)
    in file probes/probes.C at line 121
    Did not find location (0.247897 -0.0254 0) in any cell. Skipping location.
--> FOAM Warning : 
    From function virtual void Foam::probes::findElements(const Foam::fvMesh&)
    in file probes/probes.C at line 121
    Did not find location (0.24826 -0.0254 0) in any cell. Skipping location.
--> FOAM Warning : 
    From function virtual void Foam::probes::findElements(const Foam::fvMesh&)
    in file probes/probes.C at line 121
    Did not find location (0.248623 -0.0254 0) in any cell. Skipping location.
--> FOAM Warning : 
    From function virtual void Foam::probes::findElements(const Foam::fvMesh&)
    in file probes/probes.C at line 121
    Did not find location (0.248986 -0.0254 0) in any cell. Skipping location.
--> FOAM Warning : 
    From function virtual void Foam::probes::findElements(const Foam::fvMesh&)
    in file probes/probes.C at line 121
    Did not find location (0.249349 -0.0254 0) in any cell. Skipping location.
--> FOAM Warning : 
    From function virtual void Foam::probes::findElements(const Foam::fvMesh&)
    in file probes/probes.C at line 121
    Did not find location (0.249712 -0.0254 0) in any cell. Skipping location.
--> FOAM Warning : 
    From function virtual void Foam::probes::findElements(const Foam::fvMesh&)
    in file probes/probes.C at line 121
    Did not find location (0.250075 -0.0254 0) in any cell. Skipping location.
--> FOAM Warning : 
    From function virtual void Foam::probes::findElements(const Foam::fvMesh&)
    in file probes/probes.C at line 121
    Did not find location (0.250438 -0.0254 0) in any cell. Skipping location.
--> FOAM Warning : 
    From function virtual void Foam::probes::findElements(const Foam::fvMesh&)
    in file probes/probes.C at line 121
    Did not find location (0.250801 -0.0254 0) in any cell. Skipping location.
--> FOAM Warning : 
    From function virtual void Foam::probes::findElements(const Foam::fvMesh&)
    in file probes/probes.C at line 121
    Did not find location (0.251164 -0.0254 0) in any cell. Skipping location.
--> FOAM Warning : 
    From function virtual void Foam::probes::findElements(const Foam::fvMesh&)
    in file probes/probes.C at line 121
    Did not find location (0.251527 -0.0254 0) in any cell. Skipping location.
--> FOAM Warning : 
    From function virtual void Foam::probes::findElements(const Foam::fvMesh&)
    in file probes/probes.C at line 121
    Did not find location (0.25189 -0.0254 0) in any cell. Skipping location.
--> FOAM Warning : 
    From function virtual void Foam::probes::findElements(const Foam::fvMesh&)
    in file probes/probes.C at line 121
    Did not find location (0.252253 -0.0254 0) in any cell. Skipping location.
--> FOAM Warning : 
    From function virtual void Foam::probes::findElements(const Foam::fvMesh&)
    in file probes/probes.C at line 121
    Did not find location (0.252616 -0.0254 0) in any cell. Skipping location.
--> FOAM Warning : 
    From function virtual void Foam::probes::findElements(const Foam::fvMesh&)
    in file probes/probes.C at line 121
    Did not find location (0.252979 -0.0254 0) in any cell. Skipping location.
--> FOAM Warning : 
    From function virtual void Foam::probes::findElements(const Foam::fvMesh&)
    in file probes/probes.C at line 121
    Did not find location (0.253342 -0.0254 0) in any cell. Skipping location.
--> FOAM Warning : 
    From function virtual void Foam::probes::findElements(const Foam::fvMesh&)
    in file probes/probes.C at line 121
    Did not find location (0.253705 -0.0254 0) in any cell. Skipping location.
--> FOAM Warning : 
    From function virtual void Foam::probes::findElements(const Foam::fvMesh&)
    in file probes/probes.C at line 121
    Did not find location (0.254068 -0.0254 0) in any cell. Skipping location.
--> FOAM Warning : 
    From function virtual void Foam::probes::findElements(const Foam::fvMesh&)
    in file probes/probes.C at line 121
    Did not find location (0.254431 -0.0254 0) in any cell. Skipping location.
--> FOAM Warning : 
    From function virtual void Foam::probes::findElements(const Foam::fvMesh&)
    in file probes/probes.C at line 121
    Did not find location (0.254793 -0.0254 0) in any cell. Skipping location.
--> FOAM Warning : 
    From function virtual void Foam::probes::findElements(const Foam::fvMesh&)
    in file probes/probes.C at line 121
    Did not find location (0.255156 -0.0254 0) in any cell. Skipping location.
--> FOAM Warning : 
    From function virtual void Foam::probes::findElements(const Foam::fvMesh&)
    in file probes/probes.C at line 121
    Did not find location (0.255519 -0.0254 0) in any cell. Skipping location.
--> FOAM Warning : 
    From function virtual void Foam::probes::findElements(const Foam::fvMesh&)
    in file probes/probes.C at line 121
    Did not find location (0.255882 -0.0254 0) in any cell. Skipping location.
--> FOAM Warning : 
    From function virtual void Foam::probes::findElements(const Foam::fvMesh&)
    in file probes/probes.C at line 121
    Did not find location (0.256245 -0.0254 0) in any cell. Skipping location.
--> FOAM Warning : 
    From function virtual void Foam::probes::findElements(const Foam::fvMesh&)
    in file probes/probes.C at line 121
    Did not find location (0.256608 -0.0254 0) in any cell. Skipping location.
--> FOAM Warning : 
    From function virtual void Foam::probes::findElements(const Foam::fvMesh&)
    in file probes/probes.C at line 121
    Did not find location (0.256971 -0.0254 0) in any cell. Skipping location.
--> FOAM Warning : 
    From function virtual void Foam::probes::findElements(const Foam::fvMesh&)
    in file probes/probes.C at line 121
    Did not find location (0.257334 -0.0254 0) in any cell. Skipping location.
--> FOAM Warning : 
    From function virtual void Foam::probes::findElements(const Foam::fvMesh&)
    in file probes/probes.C at line 121
    Did not find location (0.257697 -0.0254 0) in any cell. Skipping location.
--> FOAM Warning : 
    From function virtual void Foam::probes::findElements(const Foam::fvMesh&)
    in file probes/probes.C at line 121
    Did not find location (0.25806 -0.0254 0) in any cell. Skipping location.
--> FOAM Warning : 
    From function virtual void Foam::probes::findElements(const Foam::fvMesh&)
    in file probes/probes.C at line 121
    Did not find location (0.258423 -0.0254 0) in any cell. Skipping location.
--> FOAM Warning : 
    From function virtual void Foam::probes::findElements(const Foam::fvMesh&)
    in file probes/probes.C at line 121
    Did not find location (0.258786 -0.0254 0) in any cell. Skipping location.
--> FOAM Warning : 
    From function virtual void Foam::probes::findElements(const Foam::fvMesh&)
    in file probes/probes.C at line 121
    Did not find location (0.259149 -0.0254 0) in any cell. Skipping location.
--> FOAM Warning : 
    From function virtual void Foam::probes::findElements(const Foam::fvMesh&)
    in file probes/probes.C at line 121
    Did not find location (0.259512 -0.0254 0) in any cell. Skipping location.
--> FOAM Warning : 
    From function virtual void Foam::probes::findElements(const Foam::fvMesh&)
    in file probes/probes.C at line 121
    Did not find location (0.259875 -0.0254 0) in any cell. Skipping location.
--> FOAM Warning : 
    From function virtual void Foam::probes::findElements(const Foam::fvMesh&)
    in file probes/probes.C at line 121
    Did not find location (0.260238 -0.0254 0) in any cell. Skipping location.
--> FOAM Warning : 
    From function virtual void Foam::probes::findElements(const Foam::fvMesh&)
    in file probes/probes.C at line 121
    Did not find location (0.260601 -0.0254 0) in any cell. Skipping location.
--> FOAM Warning : 
    From function virtual void Foam::probes::findElements(const Foam::fvMesh&)
    in file probes/probes.C at line 121
    Did not find location (0.260964 -0.0254 0) in any cell. Skipping location.
--> FOAM Warning : 
    From function virtual void Foam::probes::findElements(const Foam::fvMesh&)
    in file probes/probes.C at line 121
    Did not find location (0.261327 -0.0254 0) in any cell. Skipping location.
--> FOAM Warning : 
    From function virtual void Foam::probes::findElements(const Foam::fvMesh&)
    in file probes/probes.C at line 121
    Did not find location (0.26169 -0.0254 0) in any cell. Skipping location.
--> FOAM Warning : 
    From function virtual void Foam::probes::findElements(const Foam::fvMesh&)
    in file probes/probes.C at line 121
    Did not find location (0.262053 -0.0254 0) in any cell. Skipping location.
--> FOAM Warning : 
    From function virtual void Foam::probes::findElements(const Foam::fvMesh&)
    in file probes/probes.C at line 121
    Did not find location (0.262416 -0.0254 0) in any cell. Skipping location.
--> FOAM Warning : 
    From function virtual void Foam::probes::findElements(const Foam::fvMesh&)
    in file probes/probes.C at line 121
    Did not find location (0.262778 -0.0254 0) in any cell. Skipping location.
--> FOAM Warning : 
    From function virtual void Foam::probes::findElements(const Foam::fvMesh&)
    in file probes/probes.C at line 121
    Did not find location (0.263141 -0.0254 0) in any cell. Skipping location.
--> FOAM Warning : 
    From function virtual void Foam::probes::findElements(const Foam::fvMesh&)
    in file probes/probes.C at line 121
    Did not find location (0.263504 -0.0254 0) in any cell. Skipping location.
--> FOAM Warning : 
    From function virtual void Foam::probes::findElements(const Foam::fvMesh&)
    in file probes/probes.C at line 121
    Did not find location (0.263867 -0.0254 0) in any cell. Skipping location.
--> FOAM Warning : 
    From function virtual void Foam::probes::findElements(const Foam::fvMesh&)
    in file probes/probes.C at line 121
    Did not find location (0.26423 -0.0254 0) in any cell. Skipping location.
--> FOAM Warning : 
    From function virtual void Foam::probes::findElements(const Foam::fvMesh&)
    in file probes/probes.C at line 121
    Did not find location (0.264593 -0.0254 0) in any cell. Skipping location.
--> FOAM Warning : 
    From function virtual void Foam::probes::findElements(const Foam::fvMesh&)
    in file probes/probes.C at line 121
    Did not find location (0.264956 -0.0254 0) in any cell. Skipping location.
--> FOAM Warning : 
    From function virtual void Foam::probes::findElements(const Foam::fvMesh&)
    in file probes/probes.C at line 121
    Did not find location (0.265319 -0.0254 0) in any cell. Skipping location.
--> FOAM Warning : 
    From function virtual void Foam::probes::findElements(const Foam::fvMesh&)
    in file probes/probes.C at line 121
    Did not find location (0.265682 -0.0254 0) in any cell. Skipping location.
--> FOAM Warning : 
    From function virtual void Foam::probes::findElements(const Foam::fvMesh&)
    in file probes/probes.C at line 121
    Did not find location (0.266045 -0.0254 0) in any cell. Skipping location.
--> FOAM Warning : 
    From function virtual void Foam::probes::findElements(const Foam::fvMesh&)
    in file probes/probes.C at line 121
    Did not find location (0.266408 -0.0254 0) in any cell. Skipping location.
--> FOAM Warning : 
    From function virtual void Foam::probes::findElements(const Foam::fvMesh&)
    in file probes/probes.C at line 121
    Did not find location (0.266771 -0.0254 0) in any cell. Skipping location.
--> FOAM Warning : 
    From function virtual void Foam::probes::findElements(const Foam::fvMesh&)
    in file probes/probes.C at line 121
    Did not find location (0.267134 -0.0254 0) in any cell. Skipping location.
--> FOAM Warning : 
    From function virtual void Foam::probes::findElements(const Foam::fvMesh&)
    in file probes/probes.C at line 121
    Did not find location (0.267497 -0.0254 0) in any cell. Skipping location.
--> FOAM Warning : 
    From function virtual void Foam::probes::findElements(const Foam::fvMesh&)
    in file probes/probes.C at line 121
    Did not find location (0.26786 -0.0254 0) in any cell. Skipping location.
--> FOAM Warning : 
    From function virtual void Foam::probes::findElements(const Foam::fvMesh&)
    in file probes/probes.C at line 121
    Did not find location (0.268223 -0.0254 0) in any cell. Skipping location.
--> FOAM Warning : 
    From function virtual void Foam::probes::findElements(const Foam::fvMesh&)
    in file probes/probes.C at line 121
    Did not find location (0.268586 -0.0254 0) in any cell. Skipping location.
--> FOAM Warning : 
    From function virtual void Foam::probes::findElements(const Foam::fvMesh&)
    in file probes/probes.C at line 121
    Did not find location (0.268949 -0.0254 0) in any cell. Skipping location.
--> FOAM Warning : 
    From function virtual void Foam::probes::findElements(const Foam::fvMesh&)
    in file probes/probes.C at line 121
    Did not find location (0.269312 -0.0254 0) in any cell. Skipping location.
--> FOAM Warning : 
    From function virtual void Foam::probes::findElements(const Foam::fvMesh&)
    in file probes/probes.C at line 121
    Did not find location (0.269675 -0.0254 0) in any cell. Skipping location.
--> FOAM Warning : 
    From function virtual void Foam::probes::findElements(const Foam::fvMesh&)
    in file probes/probes.C at line 121
    Did not find location (0.270038 -0.0254 0) in any cell. Skipping location.
--> FOAM Warning : 
    From function virtual void Foam::probes::findElements(const Foam::fvMesh&)
    in file probes/probes.C at line 121
    Did not find location (0.2704 -0.0254 0) in any cell. Skipping location.
--> FOAM Warning : 
    From function virtual void Foam::probes::findElements(const Foam::fvMesh&)
    in file probes/probes.C at line 121
    Did not find location (0.270763 -0.0254 0) in any cell. Skipping location.
--> FOAM Warning : 
    From function virtual void Foam::probes::findElements(const Foam::fvMesh&)
    in file probes/probes.C at line 121
    Did not find location (0.271126 -0.0254 0) in any cell. Skipping location.
--> FOAM Warning : 
    From function virtual void Foam::probes::findElements(const Foam::fvMesh&)
    in file probes/probes.C at line 121
    Did not find location (0.271489 -0.0254 0) in any cell. Skipping location.
--> FOAM Warning : 
    From function virtual void Foam::probes::findElements(const Foam::fvMesh&)
    in file probes/probes.C at line 121
    Did not find location (0.271852 -0.0254 0) in any cell. Skipping location.
--> FOAM Warning : 
    From function virtual void Foam::probes::findElements(const Foam::fvMesh&)
    in file probes/probes.C at line 121
    Did not find location (0.272215 -0.0254 0) in any cell. Skipping location.
--> FOAM Warning : 
    From function virtual void Foam::probes::findElements(const Foam::fvMesh&)
    in file probes/probes.C at line 121
    Did not find location (0.272578 -0.0254 0) in any cell. Skipping location.
--> FOAM Warning : 
    From function virtual void Foam::probes::findElements(const Foam::fvMesh&)
    in file probes/probes.C at line 121
    Did not find location (0.272941 -0.0254 0) in any cell. Skipping location.
--> FOAM Warning : 
    From function virtual void Foam::probes::findElements(const Foam::fvMesh&)
    in file probes/probes.C at line 121
    Did not find location (0.273304 -0.0254 0) in any cell. Skipping location.
--> FOAM Warning : 
    From function virtual void Foam::probes::findElements(const Foam::fvMesh&)
    in file probes/probes.C at line 121
    Did not find location (0.273667 -0.0254 0) in any cell. Skipping location.
--> FOAM Warning : 
    From function virtual void Foam::probes::findElements(const Foam::fvMesh&)
    in file probes/probes.C at line 121
    Did not find location (0.27403 -0.0254 0) in any cell. Skipping location.
--> FOAM Warning : 
    From function virtual void Foam::probes::findElements(const Foam::fvMesh&)
    in file probes/probes.C at line 121
    Did not find location (0.274393 -0.0254 0) in any cell. Skipping location.
--> FOAM Warning : 
    From function virtual void Foam::probes::findElements(const Foam::fvMesh&)
    in file probes/probes.C at line 121
    Did not find location (0.274756 -0.0254 0) in any cell. Skipping location.
--> FOAM Warning : 
    From function virtual void Foam::probes::findElements(const Foam::fvMesh&)
    in file probes/probes.C at line 121
    Did not find location (0.275119 -0.0254 0) in any cell. Skipping location.
--> FOAM Warning : 
    From function virtual void Foam::probes::findElements(const Foam::fvMesh&)
    in file probes/probes.C at line 121
    Did not find location (0.275482 -0.0254 0) in any cell. Skipping location.
--> FOAM Warning : 
    From function virtual void Foam::probes::findElements(const Foam::fvMesh&)
    in file probes/probes.C at line 121
    Did not find location (0.275845 -0.0254 0) in any cell. Skipping location.
--> FOAM Warning : 
    From function virtual void Foam::probes::findElements(const Foam::fvMesh&)
    in file probes/probes.C at line 121
    Did not find location (0.276208 -0.0254 0) in any cell. Skipping location.
--> FOAM Warning : 
    From function virtual void Foam::probes::findElements(const Foam::fvMesh&)
    in file probes/probes.C at line 121
    Did not find location (0.276571 -0.0254 0) in any cell. Skipping location.
--> FOAM Warning : 
    From function virtual void Foam::probes::findElements(const Foam::fvMesh&)
    in file probes/probes.C at line 121
    Did not find location (0.276934 -0.0254 0) in any cell. Skipping location.
--> FOAM Warning : 
    From function virtual void Foam::probes::findElements(const Foam::fvMesh&)
    in file probes/probes.C at line 121
    Did not find location (0.277297 -0.0254 0) in any cell. Skipping location.
--> FOAM Warning : 
    From function virtual void Foam::probes::findElements(const Foam::fvMesh&)
    in file probes/probes.C at line 121
    Did not find location (0.27766 -0.0254 0) in any cell. Skipping location.
--> FOAM Warning : 
    From function virtual void Foam::probes::findElements(const Foam::fvMesh&)
    in file probes/probes.C at line 121
    Did not find location (0.278023 -0.0254 0) in any cell. Skipping location.
--> FOAM Warning : 
    From function virtual void Foam::probes::findElements(const Foam::fvMesh&)
    in file probes/probes.C at line 121
    Did not find location (0.278385 -0.0254 0) in any cell. Skipping location.
--> FOAM Warning : 
    From function virtual void Foam::probes::findElements(const Foam::fvMesh&)
    in file probes/probes.C at line 121
    Did not find location (0.278748 -0.0254 0) in any cell. Skipping location.
--> FOAM Warning : 
    From function virtual void Foam::probes::findElements(const Foam::fvMesh&)
    in file probes/probes.C at line 121
    Did not find location (0.279111 -0.0254 0) in any cell. Skipping location.
--> FOAM Warning : 
    From function virtual void Foam::probes::findElements(const Foam::fvMesh&)
    in file probes/probes.C at line 121
    Did not find location (0.279474 -0.0254 0) in any cell. Skipping location.
--> FOAM Warning : 
    From function virtual void Foam::probes::findElements(const Foam::fvMesh&)
    in file probes/probes.C at line 121
    Did not find location (0.279837 -0.0254 0) in any cell. Skipping location.
--> FOAM Warning : 
    From function virtual void Foam::probes::findElements(const Foam::fvMesh&)
    in file probes/probes.C at line 121
    Did not find location (0.2802 -0.0254 0) in any cell. Skipping location.
--> FOAM Warning : 
    From function virtual void Foam::probes::findElements(const Foam::fvMesh&)
    in file probes/probes.C at line 121
    Did not find location (0.280563 -0.0254 0) in any cell. Skipping location.
--> FOAM Warning : 
    From function virtual void Foam::probes::findElements(const Foam::fvMesh&)
    in file probes/probes.C at line 121
    Did not find location (0.280926 -0.0254 0) in any cell. Skipping location.
--> FOAM Warning : 
    From function virtual void Foam::probes::findElements(const Foam::fvMesh&)
    in file probes/probes.C at line 121
    Did not find location (0.281289 -0.0254 0) in any cell. Skipping location.
--> FOAM Warning : 
    From function virtual void Foam::probes::findElements(const Foam::fvMesh&)
    in file probes/probes.C at line 121
    Did not find location (0.281652 -0.0254 0) in any cell. Skipping location.
--> FOAM Warning : 
    From function virtual void Foam::probes::findElements(const Foam::fvMesh&)
    in file probes/probes.C at line 121
    Did not find location (0.282015 -0.0254 0) in any cell. Skipping location.
--> FOAM Warning : 
    From function virtual void Foam::probes::findElements(const Foam::fvMesh&)
    in file probes/probes.C at line 121
    Did not find location (0.282378 -0.0254 0) in any cell. Skipping location.
--> FOAM Warning : 
    From function virtual void Foam::probes::findElements(const Foam::fvMesh&)
    in file probes/probes.C at line 121
    Did not find location (0.282741 -0.0254 0) in any cell. Skipping location.
--> FOAM Warning : 
    From function virtual void Foam::probes::findElements(const Foam::fvMesh&)
    in file probes/probes.C at line 121
    Did not find location (0.283104 -0.0254 0) in any cell. Skipping location.
--> FOAM Warning : 
    From function virtual void Foam::probes::findElements(const Foam::fvMesh&)
    in file probes/probes.C at line 121
    Did not find location (0.283467 -0.0254 0) in any cell. Skipping location.
--> FOAM Warning : 
    From function virtual void Foam::probes::findElements(const Foam::fvMesh&)
    in file probes/probes.C at line 121
    Did not find location (0.28383 -0.0254 0) in any cell. Skipping location.
--> FOAM Warning : 
    From function virtual void Foam::probes::findElements(const Foam::fvMesh&)
    in file probes/probes.C at line 121
    Did not find location (0.284193 -0.0254 0) in any cell. Skipping location.
--> FOAM Warning : 
    From function virtual void Foam::probes::findElements(const Foam::fvMesh&)
    in file probes/probes.C at line 121
    Did not find location (0.284556 -0.0254 0) in any cell. Skipping location.
--> FOAM Warning : 
    From function virtual void Foam::probes::findElements(const Foam::fvMesh&)
    in file probes/probes.C at line 121
    Did not find location (0.284919 -0.0254 0) in any cell. Skipping location.
--> FOAM Warning : 
    From function virtual void Foam::probes::findElements(const Foam::fvMesh&)
    in file probes/probes.C at line 121
    Did not find location (0.285282 -0.0254 0) in any cell. Skipping location.
--> FOAM Warning : 
    From function virtual void Foam::probes::findElements(const Foam::fvMesh&)
    in file probes/probes.C at line 121
    Did not find location (0.285645 -0.0254 0) in any cell. Skipping location.
--> FOAM Warning : 
    From function virtual void Foam::probes::findElements(const Foam::fvMesh&)
    in file probes/probes.C at line 121
    Did not find location (0.286008 -0.0254 0) in any cell. Skipping location.
--> FOAM Warning : 
    From function virtual void Foam::probes::findElements(const Foam::fvMesh&)
    in file probes/probes.C at line 121
    Did not find location (0.28637 -0.0254 0) in any cell. Skipping location.
--> FOAM Warning : 
    From function virtual void Foam::probes::findElements(const Foam::fvMesh&)
    in file probes/probes.C at line 121
    Did not find location (0.286733 -0.0254 0) in any cell. Skipping location.
--> FOAM Warning : 
    From function virtual void Foam::probes::findElements(const Foam::fvMesh&)
    in file probes/probes.C at line 121
    Did not find location (0.287096 -0.0254 0) in any cell. Skipping location.
--> FOAM Warning : 
    From function virtual void Foam::probes::findElements(const Foam::fvMesh&)
    in file probes/probes.C at line 121
    Did not find location (0.287459 -0.0254 0) in any cell. Skipping location.
--> FOAM Warning : 
    From function virtual void Foam::probes::findElements(const Foam::fvMesh&)
    in file probes/probes.C at line 121
    Did not find location (0.287822 -0.0254 0) in any cell. Skipping location.
--> FOAM Warning : 
    From function virtual void Foam::probes::findElements(const Foam::fvMesh&)
    in file probes/probes.C at line 121
    Did not find location (0.288185 -0.0254 0) in any cell. Skipping location.
--> FOAM Warning : 
    From function virtual void Foam::probes::findElements(const Foam::fvMesh&)
    in file probes/probes.C at line 121
    Did not find location (0.288548 -0.0254 0) in any cell. Skipping location.
--> FOAM Warning : 
    From function virtual void Foam::probes::findElements(const Foam::fvMesh&)
    in file probes/probes.C at line 121
    Did not find location (0.288911 -0.0254 0) in any cell. Skipping location.
--> FOAM Warning : 
    From function virtual void Foam::probes::findElements(const Foam::fvMesh&)
    in file probes/probes.C at line 121
    Did not find location (0.289274 -0.0254 0) in any cell. Skipping location.
--> FOAM Warning : 
    From function virtual void Foam::probes::findElements(const Foam::fvMesh&)
    in file probes/probes.C at line 121
    Did not find location (0.289637 -0.0254 0) in any cell. Skipping location.
--> FOAM Warning : 
    From function virtual void Foam::probes::findElements(const Foam::fvMesh&)
    in file probes/probes.C at line 121
    Did not find location (0.29 -0.0254 0) in any cell. Skipping location.
Time = 285s
Selecting solver incompressibleFluid
Selecting viscosity model constant
Selecting turbulence model type RAS
    Selecting RAS turbulence model kEpsilon
        Selecting generalised Newtonian model Newtonian
No MRF models present


End

