/*---------------------------------------------------------------------------*\
  =========                 |
  \\      /  F ield         | OpenFOAM: The Open Source CFD Toolbox
   \\    /   O peration     | Website:  https://openfoam.org
    \\  /    A nd           | Version:  13
     \\/     M anipulation  |
\*---------------------------------------------------------------------------*/
Build  : 13-cde978a97c93
Exec   : foamPostProcess -solver incompressibleFluid -func boundaryProbes_lowerWallTau -latestTime
Date   : Feb 02 2026
Time   : 14:06:57
Host   : "JOO-DESKTOP"
PID    : 53505
I/O    : uncollated
Case   : /home/joo/OpenFOAM/joo-13/run/portfolio_openfoam/trackA/00_pitzDailySteady
nProcs : 1
sigFpe : Enabling floating point exception trapping (FOAM_SIGFPE).
fileModificationChecking : Monitoring run-time modified files using timeStampMaster (fileModificationSkew 10)
allowSystemOperations : Allowing user-supplied system call operations

// * * * * * * * * * * * * * * * * * * * * * * * * * * * * * * * * * * * * * //
Create time

Create mesh for time = 285

